
-------------------------------------------------------------------------
|    ___ _   _ ___                                                      |
|   / __| | | |_  )   Release 7.4.0 "Blackbird"                         |
|   \__ \ |_| |/ /                                                      |
|   |___/\___//___|   Suite (Computational Fluid Dynamics Code)         |
|                                                                       |
-------------------------------------------------------------------------
| SU2 Project Website: https://su2code.github.io                        |
|                                                                       |
| The SU2 Project is maintained by the SU2 Foundation                   |
| (http://su2foundation.org)                                            |
-------------------------------------------------------------------------
| Copyright 2012-2022, SU2 Contributors                                 |
|                                                                       |
| SU2 is free software; you can redistribute it and/or                  |
| modify it under the terms of the GNU Lesser General Public            |
| License as published by the Free Software Foundation; either          |
| version 2.1 of the License, or (at your option) any later version.    |
|                                                                       |
| SU2 is distributed in the hope that it will be useful,                |
| but WITHOUT ANY WARRANTY; without even the implied warranty of        |
| MERCHANTABILITY or FITNESS FOR A PARTICULAR PURPOSE. See the GNU      |
| Lesser General Public License for more details.                       |
|                                                                       |
| You should have received a copy of the GNU Lesser General Public      |
| License along with SU2. If not, see <http://www.gnu.org/licenses/>.   |
-------------------------------------------------------------------------

Parsing config file for zone 0

----------------- Physical Case Definition ( Zone 0 ) -------------------
Incompressible RANS equations.
Turbulence model: Menter's k-omega SST-2003m with no production modification.
Hybrid RANS/LES: No Hybrid RANS/LES
Reading and writing binary SU2 native restart files.
Read flow solution from: ../../../O1/caseG4/cfdG4/restart_flow_G4.dat.
Non-Dimensional simulation using intialization values.
The reference area is 1 m^2.
The semi-span will be computed using the max y(3D) value.
The reference length is 1.00898 m.
Reference origin for moment evaluation is (-0.756, 0, 0).
Surface(s) where the force coefficients are evaluated: AIRFOIL.

Surface(s) plotted in the output file: AIRFOIL.
Input mesh file name: ../meshG4/meshG4.su2

--------------- Space Numerical Integration ( Zone 0 ) ------------------
Flux difference splitting (FDS) upwind scheme for the flow inviscid terms.
Second order integration in space, with slope limiter.
Venkatakrishnan slope-limiting method, with constant: 0.072.
The reference element size is: 1. 
Average of gradients with correction (viscous flow terms).
Average of gradients with correction (viscous turbulence terms).
Gradient for upwind reconstruction: unweighted Least-Squares.
Gradient for viscous and source terms: Green-Gauss.

--------------- Time Numerical Integration  ( Zone 0 ) ------------------
Local time stepping (steady state simulation).
Euler implicit method for the flow equations.
FGMRES is used for solving the linear system.
Using a ILU(0) preconditioning.
Convergence criteria of the linear solver: 1e-06.
Max number of linear iterations: 10.
CFL adaptation. Factor down: 0.1, factor up: 1.2,
                lower limit: 1, upper limit: 1000,
                acceptable linear residual: 0.001.
Courant-Friedrichs-Lewy number:        2
Euler implicit time integration for the turbulence model.

------------------ Convergence Criteria  ( Zone 0 ) ---------------------
Maximum number of solver subiterations: 20000.
Begin convergence monitoring at iteration 10.
Residual minimum value: 1e-9.
Cauchy series min. value: 1e-06.
Number of Cauchy elements: 250.
Begin windowed time average at iteration 0.

-------------------- Output Information ( Zone 0 ) ----------------------
File writing frequency: 
+------------------------------------+
|                     File| Frequency|
+------------------------------------+
|                  RESTART|       200|
|                 PARAVIEW|       200|
|         SURFACE_PARAVIEW|       200|
+------------------------------------+
Writing the convergence history file every 1 inner iterations.
Writing the screen convergence history every 10 inner iterations.
The tabular file format is CSV (.csv).
Convergence history file name: history_G4.
Forces breakdown file name: forces_breakdown.dat.
Surface file name: surface_flow_G4.
Volume file name: flow_G4.
Restart file name: restart_flow_G4.dat.

------------- Config File Boundary Information ( Zone 0 ) ---------------
+-----------------------------------------------------------------------+
|                        Marker Type|                        Marker Name|
+-----------------------------------------------------------------------+
|                          Far-field|                           FARFIELD|
+-----------------------------------------------------------------------+
|                     Heat flux wall|                            AIRFOIL|
+-----------------------------------------------------------------------+

-------------------- Output Preprocessing ( Zone 0 ) --------------------

WARNING: SURFACE_PRESSURE_DROP can only be computed for at least 2 surfaces (outlet, inlet, ...)

Screen output fields: INNER_ITER, MIN_CFL, MAX_CFL, RMS_PRESSURE, CAUCHY_DRAG, DRAG
History output group(s): INNER_ITER, MIN_CFL, MAX_CFL, RMS_RES, LIFT, DRAG, MOMENT_Z, CAUCHY
Convergence field(s): RMS_PRESSURE, DRAG
Warning: No (valid) fields chosen for time convergence monitoring. Time convergence monitoring inactive.
Volume output fields: COORDINATES, SOLUTION, PRIMITIVE, RESIDUAL, MESH_QUALITY

------------------- Geometry Preprocessing ( Zone 0 ) -------------------
Two dimensional problem.
136940 grid points before partitioning.
136104 volume elements before partitioning.
2 surface markers.
498 boundary elements in index 0 (Marker = AIRFOIL).
1174 boundary elements in index 1 (Marker = FARFIELD).
Executing the partitioning functions.
Building the graph adjacency structure.
Calling ParMETIS... graph partitioning complete (1616 edge cuts).
Distributing ParMETIS coloring.
Rebalancing vertices.
Rebalancing volume element connectivity.
Rebalancing markers and surface elements.
140175 vertices including ghost points. 
137715 interior elements including halo cells. 
137715 quadrilaterals.
Establishing MPI communication patterns.
Setting point connectivity.
Renumbering points (Reverse Cuthill McKee Ordering).
Recomputing point connectivity.
Setting element connectivity.
Checking the numerical grid orientation.
All volume elements are correctly orientend.
There has been a re-orientation of 843 LINE surface elements.
Identifying edges and vertices.
Setting the control volume structure.
Area of the computational grid: 3234.25.
Searching for the closest normal neighbors to the surfaces.
Storing a mapping from global to local point index.
Compute the surface curvature.
Max K: 4099.33. Mean K: 4.4793. Standard deviation K: 105.177.
Checking for periodicity.
Computing mesh quality statistics for the dual control volumes.
+--------------------------------------------------------------+
|           Mesh Quality Metric|        Minimum|        Maximum|
+--------------------------------------------------------------+
|    Orthogonality Angle (deg.)|        73.9525|             90|
|     CV Face Area Aspect Ratio|        1.00017|        90904.5|
|           CV Sub-Volume Ratio|              1|        16.7587|
+--------------------------------------------------------------+
Finding max control volume width.
Communicating number of neighbors.
Wetted area = 2.05956 m.
Area projection in the x-plane = 0.121113 m, y-plane = 1.00873 m.
Max. coordinate in the x-direction = 1.00898 m, y-direction = 0.0759836 m.
Min. coordinate in the x-direction = 3.20676e-06 m, y-direction = -0.0451322 m.
Computing wall distances.

-------------------- Solver Preprocessing ( Zone 0 ) --------------------
 Warning: There is no restart file (flow.meta).
 Computation will continue without updating metadata parameters.
Incompressible flow: rho_ref, vel_ref, and temp_ref
are based on the initial values, p_ref = rho_ref*vel_ref^2.
Force coefficients computed using initial values.
The reference area for force coeffs. is 1 m^2.
The reference length for force coeffs. is 1.00898 m.
The pressure is decomposed into thermodynamic and dynamic components.
The initial value of the dynamic pressure is 0.
Mach number: 0.0276747, computed using the Bulk modulus.
For external flows, the initial state is imposed at the far-field.
Angle of attack (deg): 14, computed using the initial velocity.
Side slip angle (deg): 0, computed using the initial velocity.
Reynolds number per meter: 594999, computed using initial values.
Reynolds number is a byproduct of inputs only (not used internally).
SI units only. The grid should be dimensional (meters).
No energy equation.

-- Models:
+------------------------------------------------------------------------------+
|          Viscosity Model|        Conductivity Model|              Fluid Model|
+------------------------------------------------------------------------------+
|       CONSTANT_VISCOSITY|          CONSTANT_PRANDTL|         CONSTANT_DENSITY|
+------------------------------------------------------------------------------+
-- Fluid properties:
+------------------------------------------------------------------------------+
|                  Name|    Dim. value|    Ref. value|      Unit|Non-dim. value|
+------------------------------------------------------------------------------+
|             Viscosity|      1.92e-05|        11.424|   N.s/m^2|   1.68067e-06|
+------------------------------------------------------------------------------+
|        Prandtl (Lam.)|             -|             -|         -|          0.72|
|       Prandtl (Turb.)|             -|             -|         -|           0.9|
+------------------------------------------------------------------------------+
|          Bulk Modulus|        142000|             1|        Pa|        142000|
+------------------------------------------------------------------------------+
-- Initial and free-stream conditions:
+------------------------------------------------------------------------------+
|                  Name|    Dim. value|    Ref. value|      Unit|Non-dim. value|
+------------------------------------------------------------------------------+
|      Dynamic Pressure|             0|       108.756|        Pa|             0|
|        Total Pressure|       54.3781|       108.756|        Pa|           0.5|
|               Density|           1.2|           1.2|    kg/m^3|             1|
|            Velocity-X|        9.2372|       9.51999|       m/s|      0.970296|
|            Velocity-Y|        2.3031|       9.51999|       m/s|      0.241923|
|    Velocity Magnitude|       9.51999|       9.51999|       m/s|             1|
+------------------------------------------------------------------------------+
|             Viscosity|      1.92e-05|        11.424|   N.s/m^2|   1.68067e-06|
|          Conductivity|             -|       3.59312|   W/m^2.K|             -|
|     Turb. Kin. Energy|       1.35945|       90.6301|   m^2/s^2|         0.015|
|     Spec. Dissipation|       8496.58|       9.51999|       1/s|       892.499|
+------------------------------------------------------------------------------+
|           Mach Number|             -|             -|         -|     0.0276747|
|       Reynolds Number|             -|             -|         -|        594999|
+------------------------------------------------------------------------------+
Initialize Jacobian structure (Navier-Stokes). MG level: 0.
Initialize Jacobian structure (SST model).

------------------- Numerics Preprocessing ( Zone 0 ) -------------------

----------------- Integration Preprocessing ( Zone 0 ) ------------------

------------------- Iteration Preprocessing ( Zone 0 ) ------------------
Euler/Navier-Stokes/RANS fluid iteration.

------------------------------ Begin Solver -----------------------------

Simulation Run using the Single-zone Driver
+-----------------------------------------------------------------------------+
|  Inner_Iter|     Min CFL|     Max CFL|      rms[P]|  Cauchy[CD]|          CD|
+-----------------------------------------------------------------------------+
|           0|  2.4000e+00|  2.4000e+00|   -5.998322|  1.0000e+00|    0.124559|
|          10|  1.4860e+01|  1.4860e+01|   -6.026416|  1.2287e-04|    0.120803|
|          20|  7.6675e+00|  7.6675e+00|   -6.318510|  2.3114e-03|    0.064609|
|          30|  4.7475e+01|  4.7475e+01|   -6.305823|  2.5268e-03|    0.060913|
|          40|  2.4496e+01|  2.4496e+01|   -6.361158|  2.7479e-03|    0.066441|
|          50|  1.2639e+01|  1.2639e+01|   -6.449311|  2.8224e-03|    0.067449|
|          60|  7.8260e+01|  7.8260e+01|   -6.490002|  2.9480e-03|    0.064310|
|          70|  4.0381e+01|  4.0381e+01|   -6.648966|  2.9803e-03|    0.063910|
|          80|  1.4469e+01|  1.4469e+01|   -6.731780|  3.0802e-03|    0.066409|
|          90|  7.4657e+00|  7.4657e+00|   -6.726871|  3.1349e-03|    0.065210|
|         100|  4.6226e+01|  4.6226e+01|   -6.766581|  3.2191e-03|    0.063104|
|         110|  2.3852e+01|  2.3852e+01|   -6.793271|  3.2978e-03|    0.061138|
|         120|  4.9459e+01|  4.9459e+01|   -6.818328|  3.3565e-03|    0.059815|
|         130|  4.9459e+01|  4.9459e+01|   -6.851917|  3.4248e-03|    0.061522|
|         140|  4.9459e+01|  4.9459e+01|   -6.954069|  3.4977e-03|    0.059831|
|         150|  8.5465e+00|  8.5465e+00|   -6.967230|  3.5800e-03|    0.057773|
|         160|  5.2917e+01|  5.2917e+01|   -7.003298|  3.5880e-03|    0.057757|
|         170|  2.7304e+01|  2.7304e+01|   -7.033407|  3.5985e-03|    0.058019|
|         180|  1.4088e+01|  1.4088e+01|   -7.048182|  3.6053e-03|    0.058169|
|         190|  6.0577e+01|  6.0577e+01|   -7.018442|  3.6352e-03|    0.057422|
|         200|  3.1257e+01|  3.1257e+01|   -7.062979|  3.6604e-03|    0.056793|
+-----------------------------------------------------------------------+
|        File Writing Summary       |              Filename             |
+-----------------------------------------------------------------------+
|SU2 binary restart                 |restart_flow_G4.dat                |
|Paraview                           |flow_G4.vtu                        |
|Paraview surface                   |surface_flow_G4.vtu                |
+-----------------------------------------------------------------------+
+-----------------------------------------------------------------------------+
|  Inner_Iter|     Min CFL|     Max CFL|      rms[P]|  Cauchy[CD]|          CD|
+-----------------------------------------------------------------------------+
|         210|  1.1200e+01|  1.1200e+01|   -7.221812|  3.7032e-03|    0.055723|
|         220|  5.7789e+01|  5.7789e+01|   -7.217068|  3.7378e-03|    0.054856|
|         230|  2.9818e+01|  2.9818e+01|   -7.150096|  3.7674e-03|    0.054117|
|         240|  6.1830e+01|  6.1830e+01|   -7.333343|  3.7988e-03|    0.053331|
|         250|  6.1830e+01|  6.1830e+01|   -7.272632|  3.8055e-03|    0.053224|
|         260|  2.6586e+01|  2.6586e+01|   -7.419992|  3.6960e-03|    0.052890|
|         270|  1.3718e+01|  1.3718e+01|   -7.560667|  1.5349e-03|    0.052205|
|         280|  7.0780e+00|  7.0780e+00|   -7.404939|  1.3470e-03|    0.051518|
|         290|  4.3825e+01|  4.3825e+01|   -7.443256|  1.1399e-03|    0.051165|
|         300|  5.2590e+01|  5.2590e+01|   -7.519006|  1.0862e-03|    0.050644|
|         310|  5.2590e+01|  5.2590e+01|   -7.460197|  9.6695e-04|    0.050487|
|         320|  5.2590e+01|  5.2590e+01|   -7.533861|  9.4239e-04|    0.050295|
|         330|  5.2590e+01|  5.2590e+01|   -7.462990|  8.5920e-04|    0.049875|
|         340|  1.8844e+01|  1.8844e+01|   -7.482648|  8.1392e-04|    0.049642|
|         350|  5.6268e+01|  5.6268e+01|   -7.439564|  7.3773e-04|    0.049441|
|         360|  2.0162e+01|  2.0162e+01|   -7.490899|  6.6107e-04|    0.049391|
|         370|  7.2243e+00|  7.2243e+00|   -7.540273|  6.0337e-04|    0.049364|
|         380|  4.4731e+01|  4.4731e+01|   -7.601130|  5.3579e-04|    0.049347|
|         390|  1.3357e+01|  1.3357e+01|   -7.564168|  4.6760e-04|    0.049230|
|         400|  6.8917e+01|  6.8917e+01|   -7.590115|  3.9103e-04|    0.049086|
+-----------------------------------------------------------------------+
|        File Writing Summary       |              Filename             |
+-----------------------------------------------------------------------+
|SU2 binary restart                 |restart_flow_G4.dat                |
|Paraview                           |flow_G4.vtu                        |
|Paraview surface                   |surface_flow_G4.vtu                |
+-----------------------------------------------------------------------+
+-----------------------------------------------------------------------------+
|  Inner_Iter|     Min CFL|     Max CFL|      rms[P]|  Cauchy[CD]|          CD|
+-----------------------------------------------------------------------------+
|         410|  6.8917e+00|  6.8917e+00|   -7.501354|  3.9563e-04|    0.048771|
|         420|  3.5560e+00|  3.5560e+00|   -7.533412|  3.8757e-04|    0.048711|
|         430|  2.2018e+01|  2.2018e+01|   -7.542410|  3.8187e-04|    0.048682|
|         440|  1.0000e+00|  1.0000e+00|   -7.457867|  3.5399e-04|    0.048632|
|         450|  2.4883e+00|  2.4883e+00|   -7.505330|  3.2894e-04|    0.048628|
|         460|  1.0000e+00|  1.0000e+00|   -7.527903|  2.8641e-04|    0.048622|
|         470|  2.0736e+00|  2.0736e+00|   -7.532132|  2.5187e-04|    0.048619|
|         480|  1.2839e+01|  1.2839e+01|   -7.538505|  2.2281e-04|    0.048606|
|         490|  6.6247e+01|  6.6247e+01|   -7.504475|  1.9499e-04|    0.048516|
|         500|  2.8485e+01|  2.8485e+01|   -7.532129|  1.9105e-04|    0.048448|
|         510|  1.4698e+01|  1.4698e+01|   -7.536699|  1.8187e-04|    0.048343|
|         520|  7.5837e+00|  7.5837e+00|   -7.511254|  1.5821e-04|    0.048250|
|         530|  4.6956e+01|  4.6956e+01|   -7.537742|  1.3268e-04|    0.048201|
|         540|  2.4228e+01|  2.4228e+01|   -7.551732|  1.2076e-04|    0.048146|
|         550|  1.2501e+01|  1.2501e+01|   -7.558773|  1.0105e-04|    0.048118|
|         560|  6.4504e+00|  6.4504e+00|   -7.554459|  9.5081e-05|    0.048119|
|         570|  3.9939e+01|  3.9939e+01|   -7.571039|  8.8026e-05|    0.048135|
|         580|  2.0608e+01|  2.0608e+01|   -7.586672|  7.2535e-05|    0.048167|
|         590|  1.0633e+01|  1.0633e+01|   -7.597318|  6.5656e-05|    0.048229|
|         600|  5.4865e+01|  5.4865e+01|   -7.627444|  6.0642e-05|    0.048304|
+-----------------------------------------------------------------------+
|        File Writing Summary       |              Filename             |
+-----------------------------------------------------------------------+
|SU2 binary restart                 |restart_flow_G4.dat                |
|Paraview                           |flow_G4.vtu                        |
|Paraview surface                   |surface_flow_G4.vtu                |
+-----------------------------------------------------------------------+
+-----------------------------------------------------------------------------+
|  Inner_Iter|     Min CFL|     Max CFL|      rms[P]|  Cauchy[CD]|          CD|
+-----------------------------------------------------------------------------+
|         610|  2.3591e+01|  2.3591e+01|   -7.656416|  6.1751e-05|    0.048382|
|         620|  1.2172e+01|  1.2172e+01|   -7.664794|  6.4354e-05|    0.048473|
|         630|  6.2807e+00|  6.2807e+00|   -7.665355|  6.7895e-05|    0.048579|
|         640|  3.8888e+01|  3.8888e+01|   -7.677329|  6.5298e-05|    0.048631|
|         650|  6.7199e+00|  6.7199e+00|   -7.654425|  6.4415e-05|    0.048753|
|         660|  4.1608e+01|  4.1608e+01|   -7.675522|  5.3149e-05|    0.048787|
|         670|  2.1469e+01|  2.1469e+01|   -7.680990|  5.1929e-05|    0.048816|
|         680|  1.0000e+00|  1.0000e+00|   -7.670666|  5.1333e-05|    0.048831|
|         690|  1.0000e+00|  1.0000e+00|   -7.677964|  4.9361e-05|    0.048831|
|         700|  1.0000e+00|  1.0000e+00|   -7.682095|  4.9230e-05|    0.048831|
|         710|  4.2998e+00|  4.2998e+00|   -7.688197|  4.8978e-05|    0.048831|
|         720|  2.6623e+01|  2.6623e+01|   -7.688711|  4.8904e-05|    0.048832|
|         730|  1.3737e+01|  1.3737e+01|   -7.680411|  4.9140e-05|    0.048813|
|         740|  7.0880e+00|  7.0880e+00|   -7.647302|  4.7459e-05|    0.048765|
|         750|  4.3887e+01|  4.3887e+01|   -7.665974|  4.6528e-05|    0.048720|
|         760|  5.2665e+01|  5.2665e+01|   -7.627173|  4.9966e-05|    0.048529|
|         770|  6.3197e+00|  6.3197e+00|   -7.621026|  5.6464e-05|    0.048274|
|         780|  3.9130e+01|  3.9130e+01|   -7.648634|  5.7669e-05|    0.048195|
|         790|  2.0190e+01|  2.0190e+01|   -7.659111|  5.9669e-05|    0.048090|
|         800|  1.0418e+01|  1.0418e+01|   -7.636662|  6.3471e-05|    0.047967|
+-----------------------------------------------------------------------+
|        File Writing Summary       |              Filename             |
+-----------------------------------------------------------------------+
|SU2 binary restart                 |restart_flow_G4.dat                |
|Paraview                           |flow_G4.vtu                        |
|Paraview surface                   |surface_flow_G4.vtu                |
+-----------------------------------------------------------------------+
+-----------------------------------------------------------------------------+
|  Inner_Iter|     Min CFL|     Max CFL|      rms[P]|  Cauchy[CD]|          CD|
+-----------------------------------------------------------------------------+
|         810|  6.4504e+01|  6.4504e+01|   -7.674580|  6.7333e-05|    0.047863|
|         820|  3.3283e+01|  3.3283e+01|   -7.702130|  6.9357e-05|    0.047796|
|         830|  1.7173e+01|  1.7173e+01|   -7.720695|  7.0669e-05|    0.047731|
|         840|  8.8610e+00|  8.8610e+00|   -7.705994|  7.0341e-05|    0.047677|
|         850|  5.4865e+01|  5.4865e+01|   -7.775790|  6.8106e-05|    0.047658|
|         860|  1.0000e+00|  1.0000e+00|   -7.732820|  6.5071e-05|    0.047656|
|         870|  1.0000e+00|  1.0000e+00|   -7.754616|  6.1425e-05|    0.047656|
|         880|  5.1598e+00|  5.1598e+00|   -7.782992|  5.7217e-05|    0.047655|
|         890|  3.1948e+01|  3.1948e+01|   -7.818856|  5.5232e-05|    0.047655|
|         900|  1.6484e+01|  1.6484e+01|   -7.835453|  5.0943e-05|    0.047670|
|         910|  8.5056e+00|  8.5056e+00|   -7.799312|  5.1066e-05|    0.047707|
|         920|  5.2665e+01|  5.2665e+01|   -7.877872|  5.1353e-05|    0.047743|
|         930|  2.2645e+01|  2.2645e+01|   -7.901900|  5.2590e-05|    0.047788|
|         940|  1.4400e+00|  1.4400e+00|   -7.812193|  5.4177e-05|    0.047828|
|         950|  8.9161e+00|  8.9161e+00|   -7.899375|  5.4407e-05|    0.047834|
|         960|  5.5206e+01|  5.5206e+01|   -7.898518|  5.5622e-05|    0.047865|
|         970|  2.8485e+01|  2.8485e+01|   -7.915441|  5.6238e-05|    0.047882|
|         980|  1.0000e+00|  1.0000e+00|   -7.863849|  5.5906e-05|    0.047892|
|         990|  1.0000e+00|  1.0000e+00|   -7.893061|  5.3998e-05|    0.047892|
|        1000|  2.4883e+00|  2.4883e+00|   -7.898097|  5.2207e-05|    0.047892|
+-----------------------------------------------------------------------+
|        File Writing Summary       |              Filename             |
+-----------------------------------------------------------------------+
|SU2 binary restart                 |restart_flow_G4.dat                |
|Paraview                           |flow_G4.vtu                        |
|Paraview surface                   |surface_flow_G4.vtu                |
+-----------------------------------------------------------------------+
+-----------------------------------------------------------------------------+
|  Inner_Iter|     Min CFL|     Max CFL|      rms[P]|  Cauchy[CD]|          CD|
+-----------------------------------------------------------------------------+
|        1010|  1.5407e+01|  1.5407e+01|   -7.917671|  4.4598e-05|    0.047892|
|        1020|  7.9497e+00|  7.9497e+00|   -7.852510|  3.4872e-05|    0.047880|
|        1030|  4.9222e+01|  4.9222e+01|   -7.898649|  3.2610e-05|    0.047857|
|        1040|  4.9222e+01|  4.9222e+01|   -7.896757|  3.2645e-05|    0.047752|
|        1050|  4.9222e+01|  4.9222e+01|   -7.912494|  3.4537e-05|    0.047581|
|        1060|  4.9222e+01|  4.9222e+01|   -7.926001|  3.8937e-05|    0.047367|
|        1070|  5.9067e+00|  5.9067e+00|   -7.931077|  4.5816e-05|    0.047128|
|        1080|  3.6573e+01|  3.6573e+01|   -7.991778|  4.6205e-05|    0.047053|
|        1090|  5.2665e+01|  5.2665e+01|   -7.923218|  5.2602e-05|    0.046840|
|        1100|  2.7174e+01|  2.7174e+01|   -7.994682|  5.5099e-05|    0.046758|
|        1110|  5.6348e+01|  5.6348e+01|   -7.891280|  6.0380e-05|    0.046624|
|        1120|  5.6348e+01|  5.6348e+01|   -7.856521|  6.3164e-05|    0.046554|
|        1130|  5.6348e+01|  5.6348e+01|   -7.831619|  6.3813e-05|    0.046560|
|        1140|  5.6348e+01|  5.6348e+01|   -7.818991|  6.5542e-05|    0.046606|
|        1150|  1.6825e+01|  1.6825e+01|   -7.880329|  6.5891e-05|    0.046629|
|        1160|  8.6815e+00|  8.6815e+00|   -7.804648|  6.5177e-05|    0.046649|
|        1170|  5.3753e+01|  5.3753e+01|   -7.865632|  6.4029e-05|    0.046656|
|        1180|  2.7736e+01|  2.7736e+01|   -7.882923|  6.2331e-05|    0.046659|
|        1190|  6.9015e+00|  6.9015e+00|   -7.847838|  6.1024e-05|    0.046651|
|        1200|  4.2732e+01|  4.2732e+01|   -7.890753|  6.1401e-05|    0.046636|
+-----------------------------------------------------------------------+
|        File Writing Summary       |              Filename             |
+-----------------------------------------------------------------------+
|SU2 binary restart                 |restart_flow_G4.dat                |
|Paraview                           |flow_G4.vtu                        |
|Paraview surface                   |surface_flow_G4.vtu                |
+-----------------------------------------------------------------------+
+-----------------------------------------------------------------------------+
|  Inner_Iter|     Min CFL|     Max CFL|      rms[P]|  Cauchy[CD]|          CD|
+-----------------------------------------------------------------------------+
|        1210|  2.2049e+01|  2.2049e+01|   -7.902115|  6.0900e-05|    0.046618|
|        1220|  4.5721e+01|  4.5721e+01|   -7.899974|  6.2576e-05|    0.046559|
|        1230|  4.5721e+01|  4.5721e+01|   -7.923254|  6.6278e-05|    0.046456|
|        1240|  4.5721e+01|  4.5721e+01|   -7.944920|  7.1424e-05|    0.046327|
|        1250|  5.4865e+00|  5.4865e+00|   -7.964661|  7.7142e-05|    0.046184|
|        1260|  3.3971e+01|  3.3971e+01|   -8.021192|  7.8965e-05|    0.046138|
|        1270|  4.8918e+01|  4.8918e+01|   -7.982586|  8.3876e-05|    0.046003|
|        1280|  1.7528e+01|  1.7528e+01|   -8.052581|  8.5784e-05|    0.045932|
|        1290|  5.2339e+01|  5.2339e+01|   -7.982702|  8.5119e-05|    0.045844|
|        1300|  2.2505e+01|  2.2505e+01|   -8.051984|  8.0136e-05|    0.045798|
|        1310|  5.5999e+01|  5.5999e+01|   -7.964666|  7.3992e-05|    0.045737|
|        1320|  5.5999e+01|  5.5999e+01|   -7.941008|  6.5985e-05|    0.045698|
|        1330|  9.6766e+00|  9.6766e+00|   -7.906346|  6.3512e-05|    0.045686|
|        1340|  5.9915e+01|  5.9915e+01|   -7.955984|  5.5245e-05|    0.045679|
|        1350|  1.0000e+00|  1.0000e+00|   -7.979308|  5.2012e-05|    0.045678|
|        1360|  6.1917e+00|  6.1917e+00|   -8.001404|  4.6682e-05|    0.045677|
|        1370|  1.0000e+00|  1.0000e+00|   -7.999019|  4.3938e-05|    0.045676|
|        1380|  3.5832e+00|  3.5832e+00|   -8.008226|  4.3295e-05|    0.045675|
|        1390|  2.2186e+01|  2.2186e+01|   -8.002501|  4.1614e-05|    0.045671|
|        1400|  1.1448e+01|  1.1448e+01|   -7.992677|  4.0803e-05|    0.045668|
+-----------------------------------------------------------------------+
|        File Writing Summary       |              Filename             |
+-----------------------------------------------------------------------+
|SU2 binary restart                 |restart_flow_G4.dat                |
|Paraview                           |flow_G4.vtu                        |
|Paraview surface                   |surface_flow_G4.vtu                |
+-----------------------------------------------------------------------+
+-----------------------------------------------------------------------------+
|  Inner_Iter|     Min CFL|     Max CFL|      rms[P]|  Cauchy[CD]|          CD|
+-----------------------------------------------------------------------------+
|        1410|  4.9222e+01|  4.9222e+01|   -7.963036|  4.0487e-05|    0.045657|
|        1420|  2.5398e+01|  2.5398e+01|   -7.992662|  4.0522e-05|    0.045648|
|        1430|  1.7280e+00|  1.7280e+00|   -7.924773|  4.0981e-05|    0.045634|
|        1440|  1.0000e+00|  1.0000e+00|   -7.988086|  4.0783e-05|    0.045632|
|        1450|  6.1917e+00|  6.1917e+00|   -7.997923|  4.0260e-05|    0.045629|
|        1460|  3.8338e+01|  3.8338e+01|   -7.993546|  4.0250e-05|    0.045612|
|        1470|  4.6005e+01|  4.6005e+01|   -7.981598|  4.0242e-05|    0.045553|
|        1480|  9.5396e+00|  9.5396e+00|   -7.996995|  3.8361e-05|    0.045497|
|        1490|  4.9222e+00|  4.9222e+00|   -8.003845|  3.5413e-05|    0.045442|
|        1500|  3.0477e+01|  3.0477e+01|   -8.018971|  3.0884e-05|    0.045412|
|        1510|  4.3887e+01|  4.3887e+01|   -8.012347|  3.3127e-05|    0.045310|
|        1520|  9.1004e+00|  9.1004e+00|   -7.992524|  3.1409e-05|    0.045218|
|        1530|  4.6956e+01|  4.6956e+01|   -8.029040|  3.1381e-05|    0.045148|
|        1540|  4.6956e+01|  4.6956e+01|   -8.018952|  3.3159e-05|    0.045015|
|        1550|  1.6825e+01|  1.6825e+01|   -8.047993|  3.4219e-05|    0.044943|
|        1560|  5.0240e+01|  5.0240e+01|   -8.014439|  3.5759e-05|    0.044843|
|        1570|  1.0000e+00|  1.0000e+00|   -8.053227|  3.6379e-05|    0.044789|
|        1580|  1.0000e+00|  1.0000e+00|   -8.040120|  3.5978e-05|    0.044786|
|        1590|  1.0000e+00|  1.0000e+00|   -8.049791|  3.5819e-05|    0.044784|
|        1600|  6.1917e+00|  6.1917e+00|   -8.066487|  3.6059e-05|    0.044777|
+-----------------------------------------------------------------------+
|        File Writing Summary       |              Filename             |
+-----------------------------------------------------------------------+
|SU2 binary restart                 |restart_flow_G4.dat                |
|Paraview                           |flow_G4.vtu                        |
|Paraview surface                   |surface_flow_G4.vtu                |
+-----------------------------------------------------------------------+
+-----------------------------------------------------------------------------+
|  Inner_Iter|     Min CFL|     Max CFL|      rms[P]|  Cauchy[CD]|          CD|
+-----------------------------------------------------------------------------+
|        1610|  3.8338e+01|  3.8338e+01|   -8.054858|  3.7628e-05|    0.044736|
|        1620|  5.5206e+01|  5.5206e+01|   -8.002798|  4.1410e-05|    0.044641|
|        1630|  5.5206e+01|  5.5206e+01|   -7.991360|  4.4825e-05|    0.044555|
|        1640|  6.6247e+00|  6.6247e+00|   -7.986037|  4.7311e-05|    0.044489|
|        1650|  4.1019e+01|  4.1019e+01|   -8.041785|  4.8183e-05|    0.044464|
|        1660|  2.1165e+01|  2.1165e+01|   -8.059019|  4.8787e-05|    0.044437|
|        1670|  1.0921e+01|  1.0921e+01|   -8.057932|  4.9620e-05|    0.044408|
|        1680|  5.6348e+00|  5.6348e+00|   -8.037855|  5.0457e-05|    0.044373|
|        1690|  3.4889e+01|  3.4889e+01|   -8.067962|  5.1168e-05|    0.044353|
|        1700|  1.8002e+01|  1.8002e+01|   -8.077962|  5.2148e-05|    0.044326|
|        1710|  1.0000e+00|  1.0000e+00|   -8.044477|  5.2979e-05|    0.044287|
|        1720|  3.5832e+00|  3.5832e+00|   -8.080686|  5.0748e-05|    0.044285|
|        1730|  2.2186e+01|  2.2186e+01|   -8.084870|  4.9185e-05|    0.044268|
|        1740|  4.6005e+01|  4.6005e+01|   -8.066335|  4.9837e-05|    0.044196|
|        1750|  9.5396e+00|  9.5396e+00|   -8.085252|  5.1212e-05|    0.044132|
|        1760|  4.9222e+00|  4.9222e+00|   -8.089550|  4.9446e-05|    0.044074|
|        1770|  3.0477e+01|  3.0477e+01|   -8.107313|  4.6992e-05|    0.044043|
|        1780|  4.3887e+01|  4.3887e+01|   -8.099350|  4.8225e-05|    0.043942|
|        1790|  1.0921e+01|  1.0921e+01|   -8.119001|  4.5974e-05|    0.043866|
|        1800|  5.6348e+00|  5.6348e+00|   -8.114707|  4.5549e-05|    0.043804|
+-----------------------------------------------------------------------+
|        File Writing Summary       |              Filename             |
+-----------------------------------------------------------------------+
|SU2 binary restart                 |restart_flow_G4.dat                |
|Paraview                           |flow_G4.vtu                        |
|Paraview surface                   |surface_flow_G4.vtu                |
+-----------------------------------------------------------------------+
+-----------------------------------------------------------------------------+
|  Inner_Iter|     Min CFL|     Max CFL|      rms[P]|  Cauchy[CD]|          CD|
+-----------------------------------------------------------------------------+
|        1810|  3.4889e+01|  3.4889e+01|   -8.138625|  4.3113e-05|    0.043765|
|        1820|  1.8002e+01|  1.8002e+01|   -8.145141|  4.2867e-05|    0.043717|
|        1830|  9.2886e+00|  9.2886e+00|   -8.108309|  4.5292e-05|    0.043654|
|        1840|  4.7927e+01|  4.7927e+01|   -8.142658|  4.7551e-05|    0.043595|
|        1850|  1.0000e+00|  1.0000e+00|   -8.066906|  4.9591e-05|    0.043537|
|        1860|  1.2000e+00|  1.2000e+00|   -8.121316|  4.8081e-05|    0.043534|
|        1870|  7.4301e+00|  7.4301e+00|   -8.152327|  4.4538e-05|    0.043527|
|        1880|  4.6005e+01|  4.6005e+01|   -8.160859|  4.2918e-05|    0.043482|
|        1890|  2.4883e+00|  2.4883e+00|   -8.145800|  4.1252e-05|    0.043457|
|        1900|  1.5407e+01|  1.5407e+01|   -8.180154|  4.0793e-05|    0.043444|
|        1910|  7.9497e+00|  7.9497e+00|   -8.108261|  4.1803e-05|    0.043392|
|        1920|  4.2998e+00|  4.2998e+00|   -8.176831|  4.0807e-05|    0.043388|
|        1930|  2.6623e+01|  2.6623e+01|   -8.185753|  4.0270e-05|    0.043366|
|        1940|  1.3737e+01|  1.3737e+01|   -8.188601|  4.1058e-05|    0.043326|
|        1950|  7.0880e+00|  7.0880e+00|   -8.144573|  4.1845e-05|    0.043280|
|        1960|  4.3887e+01|  4.3887e+01|   -8.181783|  4.1438e-05|    0.043251|
|        1970|  5.2665e+01|  5.2665e+01|   -8.148807|  4.4046e-05|    0.043183|
|        1980|  1.0000e+00|  1.0000e+00|   -8.194090|  4.4346e-05|    0.043159|
|        1990|  5.1598e+00|  5.1598e+00|   -8.197424|  4.1613e-05|    0.043156|
|        2000|  3.1948e+01|  3.1948e+01|   -8.197238|  3.9868e-05|    0.043135|
+-----------------------------------------------------------------------+
|        File Writing Summary       |              Filename             |
+-----------------------------------------------------------------------+
|SU2 binary restart                 |restart_flow_G4.dat                |
|Paraview                           |flow_G4.vtu                        |
|Paraview surface                   |surface_flow_G4.vtu                |
+-----------------------------------------------------------------------+
+-----------------------------------------------------------------------------+
|  Inner_Iter|     Min CFL|     Max CFL|      rms[P]|  Cauchy[CD]|          CD|
+-----------------------------------------------------------------------------+
|        2010|  1.6484e+01|  1.6484e+01|   -8.200673|  3.8696e-05|    0.043106|
|        2020|  4.9222e+01|  4.9222e+01|   -8.170703|  3.9470e-05|    0.043056|
|        2030|  1.7637e+01|  1.7637e+01|   -8.212181|  3.6664e-05|    0.043026|
|        2040|  9.1004e+00|  9.1004e+00|   -8.172709|  3.5119e-05|    0.042988|
|        2050|  4.6956e+01|  4.6956e+01|   -8.205606|  3.4143e-05|    0.042950|
|        2060|  9.7369e+00|  9.7369e+00|   -8.222738|  3.4622e-05|    0.042900|
|        2070|  5.0240e+00|  5.0240e+00|   -8.221851|  3.4587e-05|    0.042853|
|        2080|  3.1107e+01|  3.1107e+01|   -8.242963|  3.3041e-05|    0.042828|
|        2090|  4.4794e+01|  4.4794e+01|   -8.231614|  3.3979e-05|    0.042745|
|        2100|  4.4794e+01|  4.4794e+01|   -8.242265|  3.5379e-05|    0.042652|
|        2110|  1.1146e+01|  1.1146e+01|   -8.263318|  3.7867e-05|    0.042588|
|        2120|  5.7512e+00|  5.7512e+00|   -8.255876|  3.9636e-05|    0.042536|
|        2130|  3.5610e+01|  3.5610e+01|   -8.283203|  3.9076e-05|    0.042505|
|        2140|  2.0736e+00|  2.0736e+00|   -8.280874|  3.9333e-05|    0.042474|
|        2150|  1.2839e+01|  1.2839e+01|   -8.294701|  3.9244e-05|    0.042463|
|        2160|  6.6247e+00|  6.6247e+00|   -8.260687|  3.9349e-05|    0.042409|
|        2170|  4.1019e+01|  4.1019e+01|   -8.291167|  4.0506e-05|    0.042375|
|        2180|  4.9222e+01|  4.9222e+01|   -8.265494|  4.3082e-05|    0.042289|
|        2190|  2.5398e+01|  2.5398e+01|   -8.301172|  4.2944e-05|    0.042253|
|        2200|  5.2665e+01|  5.2665e+01|   -8.260475|  4.3976e-05|    0.042180|
+-----------------------------------------------------------------------+
|        File Writing Summary       |              Filename             |
+-----------------------------------------------------------------------+
|SU2 binary restart                 |restart_flow_G4.dat                |
|Paraview                           |flow_G4.vtu                        |
|Paraview surface                   |surface_flow_G4.vtu                |
+-----------------------------------------------------------------------+
+-----------------------------------------------------------------------------+
|  Inner_Iter|     Min CFL|     Max CFL|      rms[P]|  Cauchy[CD]|          CD|
+-----------------------------------------------------------------------------+
|        2210|  5.2665e+01|  5.2665e+01|   -8.256450|  4.5969e-05|    0.042102|
|        2220|  5.2665e+01|  5.2665e+01|   -8.255422|  4.6092e-05|    0.042031|
|        2230|  1.5726e+01|  1.5726e+01|   -8.308126|  4.6504e-05|    0.041996|
|        2240|  8.1140e+00|  8.1140e+00|   -8.229421|  4.7826e-05|    0.041960|
|        2250|  5.0240e+01|  5.0240e+01|   -8.302969|  4.8122e-05|    0.041932|
|        2260|  2.5923e+01|  2.5923e+01|   -8.324723|  4.7793e-05|    0.041911|
|        2270|  1.3376e+01|  1.3376e+01|   -8.330058|  4.7039e-05|    0.041880|
|        2280|  6.9015e+00|  6.9015e+00|   -8.285283|  4.7115e-05|    0.041848|
|        2290|  4.2732e+01|  4.2732e+01|   -8.334696|  4.6628e-05|    0.041822|
|        2300|  2.2049e+01|  2.2049e+01|   -8.346550|  4.6150e-05|    0.041797|
|        2310|  4.5721e+01|  4.5721e+01|   -8.330640|  4.6492e-05|    0.041738|
|        2320|  4.5721e+01|  4.5721e+01|   -8.341462|  4.7568e-05|    0.041663|
|        2330|  4.5721e+01|  4.5721e+01|   -8.351668|  4.9659e-05|    0.041586|
|        2340|  4.5721e+01|  4.5721e+01|   -8.360811|  4.9440e-05|    0.041509|
|        2350|  4.5721e+01|  4.5721e+01|   -8.368070|  4.8740e-05|    0.041434|
|        2360|  5.4865e+00|  5.4865e+00|   -8.374365|  4.9146e-05|    0.041359|
|        2370|  3.3971e+01|  3.3971e+01|   -8.410103|  4.8028e-05|    0.041336|
|        2380|  1.7528e+01|  1.7528e+01|   -8.418498|  4.7915e-05|    0.041307|
|        2390|  9.0442e+00|  9.0442e+00|   -8.369165|  4.8130e-05|    0.041271|
|        2400|  5.5999e+01|  5.5999e+01|   -8.405081|  4.9041e-05|    0.041237|
+-----------------------------------------------------------------------+
|        File Writing Summary       |              Filename             |
+-----------------------------------------------------------------------+
|SU2 binary restart                 |restart_flow_G4.dat                |
|Paraview                           |flow_G4.vtu                        |
|Paraview surface                   |surface_flow_G4.vtu                |
+-----------------------------------------------------------------------+
+-----------------------------------------------------------------------------+
|  Inner_Iter|     Min CFL|     Max CFL|      rms[P]|  Cauchy[CD]|          CD|
+-----------------------------------------------------------------------------+
|        2410|  2.8894e+01|  2.8894e+01|   -8.427081|  4.7814e-05|    0.041213|
|        2420|  4.9929e+01|  4.9929e+01|   -8.393655|  4.8763e-05|    0.041156|
|        2430|  4.9929e+01|  4.9929e+01|   -8.392476|  4.7744e-05|    0.041095|
|        2440|  4.9929e+01|  4.9929e+01|   -8.392225|  4.8624e-05|    0.041037|
|        2450|  7.1898e+00|  7.1898e+00|   -8.359380|  4.7601e-05|    0.040990|
|        2460|  4.4517e+01|  4.4517e+01|   -8.428104|  4.5367e-05|    0.040968|
|        2470|  2.2970e+01|  2.2970e+01|   -8.443504|  4.3344e-05|    0.040948|
|        2480|  5.7157e+00|  5.7157e+00|   -8.418072|  4.3568e-05|    0.040907|
|        2490|  3.5390e+01|  3.5390e+01|   -8.448753|  4.2847e-05|    0.040889|
|        2500|  1.8260e+01|  1.8260e+01|   -8.456066|  4.2630e-05|    0.040866|
|        2510|  4.5438e+01|  4.5438e+01|   -8.436451|  4.3527e-05|    0.040823|
|        2520|  4.5438e+01|  4.5438e+01|   -8.443128|  4.4596e-05|    0.040766|
|        2530|  4.5438e+01|  4.5438e+01|   -8.449810|  4.5682e-05|    0.040706|
|        2540|  4.5438e+01|  4.5438e+01|   -8.457635|  4.7050e-05|    0.040646|
|        2550|  4.5438e+01|  4.5438e+01|   -8.464395|  4.8410e-05|    0.040586|
|        2560|  4.5438e+01|  4.5438e+01|   -8.470906|  4.8381e-05|    0.040528|
|        2570|  7.8517e+00|  7.8517e+00|   -8.440014|  4.7322e-05|    0.040480|
|        2580|  4.8615e+01|  4.8615e+01|   -8.498166|  4.5282e-05|    0.040454|
|        2590|  2.5084e+01|  2.5084e+01|   -8.515154|  4.2910e-05|    0.040437|
|        2600|  1.2943e+01|  1.2943e+01|   -8.518654|  4.0915e-05|    0.040411|
+-----------------------------------------------------------------------+
|        File Writing Summary       |              Filename             |
+-----------------------------------------------------------------------+
|SU2 binary restart                 |restart_flow_G4.dat                |
|Paraview                           |flow_G4.vtu                        |
|Paraview surface                   |surface_flow_G4.vtu                |
+-----------------------------------------------------------------------+
+-----------------------------------------------------------------------------+
|  Inner_Iter|     Min CFL|     Max CFL|      rms[P]|  Cauchy[CD]|          CD|
+-----------------------------------------------------------------------------+
|        2610|  6.6783e+00|  6.6783e+00|   -8.487515|  3.9154e-05|    0.040380|
|        2620|  4.1350e+01|  4.1350e+01|   -8.518246|  3.8977e-05|    0.040361|
|        2630|  2.1336e+01|  2.1336e+01|   -8.527916|  3.8549e-05|    0.040343|
|        2640|  1.1009e+01|  1.1009e+01|   -8.519514|  3.8076e-05|    0.040319|
|        2650|  1.0000e+00|  1.0000e+00|   -8.517450|  3.6852e-05|    0.040315|
|        2660|  1.0000e+00|  1.0000e+00|   -8.529425|  3.5953e-05|    0.040314|
|        2670|  1.0000e+00|  1.0000e+00|   -8.533172|  3.3703e-05|    0.040313|
|        2680|  1.0000e+00|  1.0000e+00|   -8.536595|  3.1320e-05|    0.040312|
|        2690|  6.1917e+00|  6.1917e+00|   -8.540244|  2.9100e-05|    0.040309|
|        2700|  3.8338e+01|  3.8338e+01|   -8.531165|  2.7907e-05|    0.040293|
|        2710|  1.9781e+01|  1.9781e+01|   -8.534059|  2.7778e-05|    0.040273|
|        2720|  1.0207e+01|  1.0207e+01|   -8.526206|  2.7842e-05|    0.040252|
|        2730|  5.2665e+00|  5.2665e+00|   -8.519657|  2.7235e-05|    0.040226|
|        2740|  3.2609e+01|  3.2609e+01|   -8.539568|  2.7034e-05|    0.040213|
|        2750|  4.6956e+01|  4.6956e+01|   -8.515518|  2.7771e-05|    0.040172|
|        2760|  4.6956e+01|  4.6956e+01|   -8.517823|  2.7845e-05|    0.040127|
|        2770|  1.4021e+01|  1.4021e+01|   -8.548675|  2.6469e-05|    0.040104|
|        2780|  7.2346e+00|  7.2346e+00|   -8.501568|  2.5083e-05|    0.040079|
|        2790|  4.4794e+01|  4.4794e+01|   -8.549338|  2.3437e-05|    0.040060|
|        2800|  4.4794e+01|  4.4794e+01|   -8.538443|  2.2835e-05|    0.040015|
+-----------------------------------------------------------------------+
|        File Writing Summary       |              Filename             |
+-----------------------------------------------------------------------+
|SU2 binary restart                 |restart_flow_G4.dat                |
|Paraview                           |flow_G4.vtu                        |
|Paraview surface                   |surface_flow_G4.vtu                |
+-----------------------------------------------------------------------+
+-----------------------------------------------------------------------------+
|  Inner_Iter|     Min CFL|     Max CFL|      rms[P]|  Cauchy[CD]|          CD|
+-----------------------------------------------------------------------------+
|        2810|  4.4794e+01|  4.4794e+01|   -8.543838|  2.2359e-05|    0.039969|
|        2820|  4.4794e+01|  4.4794e+01|   -8.548761|  2.2349e-05|    0.039922|
|        2830|  4.4794e+01|  4.4794e+01|   -8.553519|  2.3238e-05|    0.039873|
|        2840|  4.4794e+01|  4.4794e+01|   -8.558248|  2.4402e-05|    0.039827|
|        2850|  4.4794e+01|  4.4794e+01|   -8.562052|  2.5160e-05|    0.039782|
|        2860|  1.9261e+01|  1.9261e+01|   -8.591527|  2.4766e-05|    0.039761|
|        2870|  9.9382e+00|  9.9382e+00|   -8.584462|  2.4850e-05|    0.039740|
|        2880|  5.1279e+00|  5.1279e+00|   -8.576469|  2.5076e-05|    0.039716|
|        2890|  3.1750e+01|  3.1750e+01|   -8.597715|  2.4597e-05|    0.039704|
|        2900|  4.5721e+01|  4.5721e+01|   -8.574238|  2.5957e-05|    0.039667|
|        2910|  1.9659e+01|  1.9659e+01|   -8.601801|  2.6665e-05|    0.039648|
|        2920|  1.0144e+01|  1.0144e+01|   -8.595238|  2.7385e-05|    0.039629|
|        2930|  5.2339e+00|  5.2339e+00|   -8.585356|  2.8198e-05|    0.039607|
|        2940|  1.0000e+00|  1.0000e+00|   -8.587520|  2.8147e-05|    0.039606|
|        2950|  1.0000e+00|  1.0000e+00|   -8.589796|  2.7504e-05|    0.039605|
|        2960|  1.0000e+00|  1.0000e+00|   -8.597161|  2.6769e-05|    0.039604|
|        2970|  2.4883e+00|  2.4883e+00|   -8.602156|  2.5936e-05|    0.039603|
|        2980|  1.5407e+01|  1.5407e+01|   -8.613601|  2.5157e-05|    0.039597|
|        2990|  4.6005e+01|  4.6005e+01|   -8.585156|  2.5681e-05|    0.039571|
|        3000|  4.6005e+01|  4.6005e+01|   -8.585559|  2.5479e-05|    0.039535|
+-----------------------------------------------------------------------+
|        File Writing Summary       |              Filename             |
+-----------------------------------------------------------------------+
|SU2 binary restart                 |restart_flow_G4.dat                |
|Paraview                           |flow_G4.vtu                        |
|Paraview surface                   |surface_flow_G4.vtu                |
+-----------------------------------------------------------------------+
+-----------------------------------------------------------------------------+
|  Inner_Iter|     Min CFL|     Max CFL|      rms[P]|  Cauchy[CD]|          CD|
+-----------------------------------------------------------------------------+
|        3010|  4.6005e+01|  4.6005e+01|   -8.587090|  2.5130e-05|    0.039499|
|        3020|  4.6005e+01|  4.6005e+01|   -8.590971|  2.5693e-05|    0.039462|
|        3030|  1.1448e+01|  1.1448e+01|   -8.623414|  2.5575e-05|    0.039439|
|        3040|  5.9067e+00|  5.9067e+00|   -8.601653|  2.5653e-05|    0.039418|
|        3050|  3.6573e+01|  3.6573e+01|   -8.625035|  2.4392e-05|    0.039406|
|        3060|  4.3887e+01|  4.3887e+01|   -8.612899|  2.3941e-05|    0.039371|
|        3070|  4.3887e+01|  4.3887e+01|   -8.618130|  2.3530e-05|    0.039333|
|        3080|  4.3887e+01|  4.3887e+01|   -8.622392|  2.3115e-05|    0.039296|
|        3090|  4.3887e+01|  4.3887e+01|   -8.626651|  2.2738e-05|    0.039258|
|        3100|  7.5837e+00|  7.5837e+00|   -8.599761|  2.2187e-05|    0.039227|
|        3110|  4.6956e+01|  4.6956e+01|   -8.647011|  2.2025e-05|    0.039211|
|        3120|  2.4228e+01|  2.4228e+01|   -8.659258|  2.1633e-05|    0.039199|
|        3130|  1.2501e+01|  1.2501e+01|   -8.660831|  2.1340e-05|    0.039183|
|        3140|  4.4794e+01|  4.4794e+01|   -8.641543|  2.1732e-05|    0.039161|
|        3150|  9.2886e+00|  9.2886e+00|   -8.622403|  2.1233e-05|    0.039136|
|        3160|  4.7927e+00|  4.7927e+00|   -8.652335|  2.1215e-05|    0.039117|
|        3170|  2.9675e+01|  2.9675e+01|   -8.668729|  2.0817e-05|    0.039108|
|        3180|  1.2760e+00|  1.2760e+00|   -8.669046|  2.0543e-05|    0.039094|
|        3190|  1.0000e+00|  1.0000e+00|   -8.663346|  2.0509e-05|    0.039093|
|        3200|  1.0000e+00|  1.0000e+00|   -8.669461|  2.0506e-05|    0.039092|
+-----------------------------------------------------------------------+
|        File Writing Summary       |              Filename             |
+-----------------------------------------------------------------------+
|SU2 binary restart                 |restart_flow_G4.dat                |
|Paraview                           |flow_G4.vtu                        |
|Paraview surface                   |surface_flow_G4.vtu                |
+-----------------------------------------------------------------------+
+-----------------------------------------------------------------------------+
|  Inner_Iter|     Min CFL|     Max CFL|      rms[P]|  Cauchy[CD]|          CD|
+-----------------------------------------------------------------------------+
|        3210|  1.0000e+00|  1.0000e+00|   -8.673080|  2.0503e-05|    0.039092|
|        3220|  1.0000e+00|  1.0000e+00|   -8.675588|  2.0493e-05|    0.039091|
|        3230|  2.9860e+00|  2.9860e+00|   -8.677354|  2.0310e-05|    0.039090|
|        3240|  1.8488e+01|  1.8488e+01|   -8.678814|  1.9497e-05|    0.039084|
|        3250|  4.6005e+01|  4.6005e+01|   -8.652443|  1.9017e-05|    0.039060|
|        3260|  4.6005e+01|  4.6005e+01|   -8.653031|  1.8793e-05|    0.039029|
|        3270|  4.6005e+01|  4.6005e+01|   -8.654077|  1.8519e-05|    0.038999|
|        3280|  4.6005e+01|  4.6005e+01|   -8.657360|  1.8887e-05|    0.038967|
|        3290|  4.6005e+01|  4.6005e+01|   -8.662210|  1.9306e-05|    0.038936|
|        3300|  1.6484e+01|  1.6484e+01|   -8.690752|  1.9339e-05|    0.038922|
|        3310|  8.5056e+00|  8.5056e+00|   -8.655947|  1.8586e-05|    0.038906|
|        3320|  4.3887e+01|  4.3887e+01|   -8.687060|  1.7703e-05|    0.038891|
|        3330|  4.3887e+01|  4.3887e+01|   -8.682724|  1.7398e-05|    0.038861|
|        3340|  4.3887e+01|  4.3887e+01|   -8.687150|  1.7141e-05|    0.038830|
|        3350|  4.3887e+01|  4.3887e+01|   -8.691268|  1.7155e-05|    0.038798|
|        3360|  4.3887e+01|  4.3887e+01|   -8.694820|  1.7717e-05|    0.038768|
|        3370|  7.5837e+00|  7.5837e+00|   -8.667470|  1.8265e-05|    0.038743|
|        3380|  4.6956e+01|  4.6956e+01|   -8.713677|  1.8155e-05|    0.038729|
|        3390|  2.4228e+01|  2.4228e+01|   -8.725205|  1.7648e-05|    0.038719|
|        3400|  1.2501e+01|  1.2501e+01|   -8.726125|  1.7204e-05|    0.038706|
+-----------------------------------------------------------------------+
|        File Writing Summary       |              Filename             |
+-----------------------------------------------------------------------+
|SU2 binary restart                 |restart_flow_G4.dat                |
|Paraview                           |flow_G4.vtu                        |
|Paraview surface                   |surface_flow_G4.vtu                |
+-----------------------------------------------------------------------+
+-----------------------------------------------------------------------------+
|  Inner_Iter|     Min CFL|     Max CFL|      rms[P]|  Cauchy[CD]|          CD|
+-----------------------------------------------------------------------------+
|        3410|  4.4794e+01|  4.4794e+01|   -8.706926|  1.7217e-05|    0.038687|
|        3420|  4.4794e+01|  4.4794e+01|   -8.707492|  1.7946e-05|    0.038660|
|        3430|  1.9261e+01|  1.9261e+01|   -8.730128|  1.7884e-05|    0.038647|
|        3440|  9.9382e+00|  9.9382e+00|   -8.723290|  1.8391e-05|    0.038633|
|        3450|  5.1279e+00|  5.1279e+00|   -8.717230|  1.8970e-05|    0.038618|
|        3460|  1.0000e+00|  1.0000e+00|   -8.717156|  1.8985e-05|    0.038617|
|        3470|  1.4400e+00|  1.4400e+00|   -8.719235|  1.8979e-05|    0.038616|
|        3480|  8.9161e+00|  8.9161e+00|   -8.736526|  1.9026e-05|    0.038614|
|        3490|  4.6005e+01|  4.6005e+01|   -8.725008|  1.9341e-05|    0.038600|
|        3500|  4.6005e+01|  4.6005e+01|   -8.715962|  1.9393e-05|    0.038575|
|        3510|  4.6005e+01|  4.6005e+01|   -8.717109|  1.9196e-05|    0.038549|
|        3520|  4.6005e+01|  4.6005e+01|   -8.719361|  1.9039e-05|    0.038523|
|        3530|  4.6005e+01|  4.6005e+01|   -8.723550|  1.8867e-05|    0.038496|
|        3540|  1.1448e+01|  1.1448e+01|   -8.752721|  1.8226e-05|    0.038480|
|        3550|  5.9067e+00|  5.9067e+00|   -8.733711|  1.8264e-05|    0.038466|
|        3560|  3.6573e+01|  3.6573e+01|   -8.755417|  1.7972e-05|    0.038457|
|        3570|  4.3887e+01|  4.3887e+01|   -8.743476|  1.8343e-05|    0.038432|
|        3580|  4.3887e+01|  4.3887e+01|   -8.747928|  1.8172e-05|    0.038406|
|        3590|  4.3887e+01|  4.3887e+01|   -8.751820|  1.7961e-05|    0.038381|
|        3600|  4.3887e+01|  4.3887e+01|   -8.756024|  1.7739e-05|    0.038355|
+-----------------------------------------------------------------------+
|        File Writing Summary       |              Filename             |
+-----------------------------------------------------------------------+
|SU2 binary restart                 |restart_flow_G4.dat                |
|Paraview                           |flow_G4.vtu                        |
|Paraview surface                   |surface_flow_G4.vtu                |
+-----------------------------------------------------------------------+
+-----------------------------------------------------------------------------+
|  Inner_Iter|     Min CFL|     Max CFL|      rms[P]|  Cauchy[CD]|          CD|
+-----------------------------------------------------------------------------+
|        3610|  1.5726e+01|  1.5726e+01|   -8.778549|  1.7051e-05|    0.038341|
|        3620|  8.1140e+00|  8.1140e+00|   -8.745052|  1.6556e-05|    0.038329|
|        3630|  5.0240e+01|  5.0240e+01|   -8.775745|  1.6468e-05|    0.038317|
|        3640|  2.5923e+01|  2.5923e+01|   -8.787169|  1.6418e-05|    0.038309|
|        3650|  4.4794e+01|  4.4794e+01|   -8.769239|  1.6709e-05|    0.038288|
|        3660|  4.4794e+01|  4.4794e+01|   -8.770758|  1.6896e-05|    0.038265|
|        3670|  1.6051e+01|  1.6051e+01|   -8.792582|  1.6304e-05|    0.038252|
|        3680|  8.2818e+00|  8.2818e+00|   -8.757458|  1.6261e-05|    0.038240|
|        3690|  5.1279e+01|  5.1279e+01|   -8.787912|  1.6162e-05|    0.038229|
|        3700|  1.0000e+00|  1.0000e+00|   -8.778673|  1.5687e-05|    0.038226|
|        3710|  3.5832e+00|  3.5832e+00|   -8.785519|  1.5673e-05|    0.038225|
|        3720|  2.2186e+01|  2.2186e+01|   -8.803254|  1.5844e-05|    0.038220|
|        3730|  4.6005e+01|  4.6005e+01|   -8.781657|  1.6501e-05|    0.038202|
|        3740|  4.6005e+01|  4.6005e+01|   -8.783554|  1.6823e-05|    0.038180|
|        3750|  4.6005e+01|  4.6005e+01|   -8.785667|  1.6708e-05|    0.038157|
|        3760|  4.6005e+01|  4.6005e+01|   -8.789489|  1.6598e-05|    0.038134|
|        3770|  4.6005e+01|  4.6005e+01|   -8.794604|  1.6444e-05|    0.038111|
|        3780|  4.6005e+01|  4.6005e+01|   -8.800471|  1.6264e-05|    0.038089|
|        3790|  2.3738e+01|  2.3738e+01|   -8.827569|  1.5938e-05|    0.038082|
|        3800|  1.2248e+01|  1.2248e+01|   -8.830747|  1.5781e-05|    0.038071|
+-----------------------------------------------------------------------+
|        File Writing Summary       |              Filename             |
+-----------------------------------------------------------------------+
|SU2 binary restart                 |restart_flow_G4.dat                |
|Paraview                           |flow_G4.vtu                        |
|Paraview surface                   |surface_flow_G4.vtu                |
+-----------------------------------------------------------------------+
+-----------------------------------------------------------------------------+
|  Inner_Iter|     Min CFL|     Max CFL|      rms[P]|  Cauchy[CD]|          CD|
+-----------------------------------------------------------------------------+
|        3810|  4.3887e+01|  4.3887e+01|   -8.815013|  1.5989e-05|    0.038057|
|        3820|  4.3887e+01|  4.3887e+01|   -8.819139|  1.5862e-05|    0.038036|
|        3830|  4.3887e+01|  4.3887e+01|   -8.822634|  1.5679e-05|    0.038014|
|        3840|  1.8871e+01|  1.8871e+01|   -8.844296|  1.5049e-05|    0.038004|
|        3850|  9.7369e+00|  9.7369e+00|   -8.838676|  1.4444e-05|    0.037994|
|        3860|  5.0240e+00|  5.0240e+00|   -8.836009|  1.4375e-05|    0.037982|
|        3870|  3.1107e+01|  3.1107e+01|   -8.851873|  1.4111e-05|    0.037976|
|        3880|  4.4794e+01|  4.4794e+01|   -8.835455|  1.4405e-05|    0.037957|
|        3890|  4.4794e+01|  4.4794e+01|   -8.837448|  1.4862e-05|    0.037937|
|        3900|  1.1146e+01|  1.1146e+01|   -8.852819|  1.4553e-05|    0.037924|
|        3910|  5.7512e+00|  5.7512e+00|   -8.841801|  1.4051e-05|    0.037913|
|        3920|  3.5610e+01|  3.5610e+01|   -8.862233|  1.3815e-05|    0.037907|
|        3930|  1.0000e+00|  1.0000e+00|   -8.836809|  1.3580e-05|    0.037901|
|        3940|  4.2998e+00|  4.2998e+00|   -8.852773|  1.3174e-05|    0.037900|
|        3950|  2.6623e+01|  2.6623e+01|   -8.868705|  1.3240e-05|    0.037895|
|        3960|  4.6005e+01|  4.6005e+01|   -8.848612|  1.3879e-05|    0.037878|
|        3970|  4.6005e+01|  4.6005e+01|   -8.850859|  1.4437e-05|    0.037859|
|        3980|  4.6005e+01|  4.6005e+01|   -8.853070|  1.4460e-05|    0.037840|
|        3990|  4.6005e+01|  4.6005e+01|   -8.856569|  1.4366e-05|    0.037821|
|        4000|  4.6005e+01|  4.6005e+01|   -8.861260|  1.4237e-05|    0.037801|
+-----------------------------------------------------------------------+
|        File Writing Summary       |              Filename             |
+-----------------------------------------------------------------------+
|SU2 binary restart                 |restart_flow_G4.dat                |
|Paraview                           |flow_G4.vtu                        |
|Paraview surface                   |surface_flow_G4.vtu                |
+-----------------------------------------------------------------------+
+-----------------------------------------------------------------------------+
|  Inner_Iter|     Min CFL|     Max CFL|      rms[P]|  Cauchy[CD]|          CD|
+-----------------------------------------------------------------------------+
|        4010|  4.6005e+01|  4.6005e+01|   -8.866709|  1.4072e-05|    0.037782|
|        4020|  4.6005e+01|  4.6005e+01|   -8.872062|  1.3927e-05|    0.037763|
|        4030|  4.6005e+01|  4.6005e+01|   -8.877439|  1.3797e-05|    0.037744|
|        4040|  4.6005e+01|  4.6005e+01|   -8.882767|  1.4263e-05|    0.037725|
|        4050|  4.6005e+01|  4.6005e+01|   -8.887604|  1.4573e-05|    0.037707|
|        4060|  4.6005e+01|  4.6005e+01|   -8.891867|  1.4730e-05|    0.037689|
|        4070|  4.6005e+01|  4.6005e+01|   -8.896000|  1.4589e-05|    0.037671|
|        4080|  4.6005e+01|  4.6005e+01|   -8.900084|  1.4435e-05|    0.037654|
|        4090|  4.6005e+01|  4.6005e+01|   -8.903905|  1.4706e-05|    0.037637|
|        4100|  4.6005e+01|  4.6005e+01|   -8.907530|  1.4949e-05|    0.037620|
|        4110|  4.6005e+01|  4.6005e+01|   -8.911584|  1.5135e-05|    0.037604|
|        4120|  4.6005e+01|  4.6005e+01|   -8.916159|  1.5543e-05|    0.037587|
|        4130|  4.6005e+01|  4.6005e+01|   -8.920909|  1.5438e-05|    0.037571|
|        4140|  4.6005e+01|  4.6005e+01|   -8.925739|  1.5300e-05|    0.037555|
|        4150|  4.6005e+01|  4.6005e+01|   -8.930868|  1.5415e-05|    0.037539|
|        4160|  4.6005e+01|  4.6005e+01|   -8.936433|  1.5633e-05|    0.037522|
|        4170|  4.6005e+01|  4.6005e+01|   -8.942129|  1.6016e-05|    0.037506|
|        4180|  4.6005e+01|  4.6005e+01|   -8.947551|  1.6411e-05|    0.037490|
|        4190|  4.6005e+01|  4.6005e+01|   -8.952584|  1.7010e-05|    0.037475|
|        4200|  4.6005e+01|  4.6005e+01|   -8.957379|  1.7432e-05|    0.037459|
+-----------------------------------------------------------------------+
|        File Writing Summary       |              Filename             |
+-----------------------------------------------------------------------+
|SU2 binary restart                 |restart_flow_G4.dat                |
|Paraview                           |flow_G4.vtu                        |
|Paraview surface                   |surface_flow_G4.vtu                |
+-----------------------------------------------------------------------+
+-----------------------------------------------------------------------------+
|  Inner_Iter|     Min CFL|     Max CFL|      rms[P]|  Cauchy[CD]|          CD|
+-----------------------------------------------------------------------------+
|        4210|  4.6005e+01|  4.6005e+01|   -8.962040|  1.7371e-05|    0.037444|
|        4220|  4.6005e+01|  4.6005e+01|   -8.966414|  1.7214e-05|    0.037429|
|        4230|  4.6005e+01|  4.6005e+01|   -8.970521|  1.7029e-05|    0.037414|
|        4240|  4.6005e+01|  4.6005e+01|   -8.974472|  1.6819e-05|    0.037400|
|        4250|  4.6005e+01|  4.6005e+01|   -8.978518|  1.6614e-05|    0.037386|
|        4260|  4.6005e+01|  4.6005e+01|   -8.982699|  1.6414e-05|    0.037372|
|        4270|  4.6005e+01|  4.6005e+01|   -8.987024|  1.6202e-05|    0.037358|
|        4280|  4.6005e+01|  4.6005e+01|   -8.991591|  1.5982e-05|    0.037345|
|        4290|  4.6005e+01|  4.6005e+01|   -8.996468|  1.5772e-05|    0.037331|
|        4300|  4.6005e+01|  4.6005e+01|   -9.001587|  1.5580e-05|    0.037317|
|        4310|  4.6005e+01|  4.6005e+01|   -9.006790|  1.5402e-05|    0.037304|
|        4320|  4.6005e+01|  4.6005e+01|   -9.012003|  1.5233e-05|    0.037290|
|        4330|  4.6005e+01|  4.6005e+01|   -9.017155|  1.5074e-05|    0.037277|
|        4340|  4.6005e+01|  4.6005e+01|   -9.022172|  1.4928e-05|    0.037263|
|        4350|  4.6005e+01|  4.6005e+01|   -9.026992|  1.4785e-05|    0.037250|
|        4360|  4.6005e+01|  4.6005e+01|   -9.031620|  1.4639e-05|    0.037238|
|        4370|  4.6005e+01|  4.6005e+01|   -9.036085|  1.4487e-05|    0.037225|
|        4380|  4.6005e+01|  4.6005e+01|   -9.040434|  1.4330e-05|    0.037213|
|        4390|  4.6005e+01|  4.6005e+01|   -9.044731|  1.4168e-05|    0.037201|
|        4400|  4.6005e+01|  4.6005e+01|   -9.049024|  1.3997e-05|    0.037189|
+-----------------------------------------------------------------------+
|        File Writing Summary       |              Filename             |
+-----------------------------------------------------------------------+
|SU2 binary restart                 |restart_flow_G4.dat                |
|Paraview                           |flow_G4.vtu                        |
|Paraview surface                   |surface_flow_G4.vtu                |
+-----------------------------------------------------------------------+
+-----------------------------------------------------------------------------+
|  Inner_Iter|     Min CFL|     Max CFL|      rms[P]|  Cauchy[CD]|          CD|
+-----------------------------------------------------------------------------+
|        4410|  4.6005e+01|  4.6005e+01|   -9.053396|  1.3819e-05|    0.037177|
|        4420|  4.6005e+01|  4.6005e+01|   -9.057917|  1.3640e-05|    0.037165|
|        4430|  4.6005e+01|  4.6005e+01|   -9.062665|  1.3465e-05|    0.037154|
|        4440|  4.6005e+01|  4.6005e+01|   -9.067590|  1.3297e-05|    0.037142|
|        4450|  4.6005e+01|  4.6005e+01|   -9.072648|  1.3135e-05|    0.037131|
|        4460|  4.6005e+01|  4.6005e+01|   -9.077787|  1.2984e-05|    0.037119|
|        4470|  4.6005e+01|  4.6005e+01|   -9.082951|  1.2842e-05|    0.037108|
|        4480|  4.6005e+01|  4.6005e+01|   -9.088048|  1.2709e-05|    0.037097|
|        4490|  4.6005e+01|  4.6005e+01|   -9.093006|  1.2581e-05|    0.037086|
|        4500|  4.6005e+01|  4.6005e+01|   -9.097838|  1.2456e-05|    0.037075|
|        4510|  4.6005e+01|  4.6005e+01|   -9.102513|  1.2330e-05|    0.037064|
|        4520|  4.6005e+01|  4.6005e+01|   -9.107026|  1.2202e-05|    0.037053|
|        4530|  4.6005e+01|  4.6005e+01|   -9.111460|  1.2068e-05|    0.037043|
|        4540|  4.6005e+01|  4.6005e+01|   -9.115781|  1.1930e-05|    0.037033|
|        4550|  4.6005e+01|  4.6005e+01|   -9.120198|  1.1786e-05|    0.037023|
|        4560|  4.6005e+01|  4.6005e+01|   -9.124658|  1.1640e-05|    0.037013|
|        4570|  4.6005e+01|  4.6005e+01|   -9.129269|  1.1494e-05|    0.037003|
|        4580|  4.6005e+01|  4.6005e+01|   -9.134046|  1.1349e-05|    0.036993|
|        4590|  4.6005e+01|  4.6005e+01|   -9.138944|  1.1209e-05|    0.036983|
|        4600|  4.6005e+01|  4.6005e+01|   -9.143965|  1.1075e-05|    0.036974|
+-----------------------------------------------------------------------+
|        File Writing Summary       |              Filename             |
+-----------------------------------------------------------------------+
|SU2 binary restart                 |restart_flow_G4.dat                |
|Paraview                           |flow_G4.vtu                        |
|Paraview surface                   |surface_flow_G4.vtu                |
+-----------------------------------------------------------------------+
+-----------------------------------------------------------------------------+
|  Inner_Iter|     Min CFL|     Max CFL|      rms[P]|  Cauchy[CD]|          CD|
+-----------------------------------------------------------------------------+
|        4610|  4.6005e+01|  4.6005e+01|   -9.149043|  1.0947e-05|    0.036964|
|        4620|  4.6005e+01|  4.6005e+01|   -9.154115|  1.0827e-05|    0.036954|
|        4630|  4.6005e+01|  4.6005e+01|   -9.159147|  1.0713e-05|    0.036945|
|        4640|  4.6005e+01|  4.6005e+01|   -9.164107|  1.0602e-05|    0.036936|
|        4650|  4.6005e+01|  4.6005e+01|   -9.168942|  1.0494e-05|    0.036926|
|        4660|  4.6005e+01|  4.6005e+01|   -9.173592|  1.0385e-05|    0.036917|
|        4670|  4.6005e+01|  4.6005e+01|   -9.178203|  1.0275e-05|    0.036908|
|        4680|  4.6005e+01|  4.6005e+01|   -9.182725|  1.0162e-05|    0.036900|
|        4690|  4.6005e+01|  4.6005e+01|   -9.187211|  1.0046e-05|    0.036891|
|        4700|  4.6005e+01|  4.6005e+01|   -9.191698|  9.9265e-06|    0.036883|
|        4710|  4.6005e+01|  4.6005e+01|   -9.196253|  9.8054e-06|    0.036874|
|        4720|  4.6005e+01|  4.6005e+01|   -9.200883|  9.6842e-06|    0.036866|
|        4730|  4.6005e+01|  4.6005e+01|   -9.205637|  9.5646e-06|    0.036858|
|        4740|  4.6005e+01|  4.6005e+01|   -9.210505|  9.4482e-06|    0.036849|
|        4750|  4.6005e+01|  4.6005e+01|   -9.215458|  9.3361e-06|    0.036841|
|        4760|  4.6005e+01|  4.6005e+01|   -9.220471|  9.2291e-06|    0.036833|
|        4770|  4.6005e+01|  4.6005e+01|   -9.225497|  9.1270e-06|    0.036825|
|        4780|  4.6005e+01|  4.6005e+01|   -9.230480|  9.0292e-06|    0.036817|
|        4790|  4.6005e+01|  4.6005e+01|   -9.235410|  8.9345e-06|    0.036809|
|        4800|  4.6005e+01|  4.6005e+01|   -9.240228|  8.8415e-06|    0.036802|
+-----------------------------------------------------------------------+
|        File Writing Summary       |              Filename             |
+-----------------------------------------------------------------------+
|SU2 binary restart                 |restart_flow_G4.dat                |
|Paraview                           |flow_G4.vtu                        |
|Paraview surface                   |surface_flow_G4.vtu                |
+-----------------------------------------------------------------------+
+-----------------------------------------------------------------------------+
|  Inner_Iter|     Min CFL|     Max CFL|      rms[P]|  Cauchy[CD]|          CD|
+-----------------------------------------------------------------------------+
|        4810|  4.6005e+01|  4.6005e+01|   -9.244942|  8.7487e-06|    0.036794|
|        4820|  4.6005e+01|  4.6005e+01|   -9.249578|  8.6548e-06|    0.036786|
|        4830|  4.6005e+01|  4.6005e+01|   -9.254157|  8.5591e-06|    0.036779|
|        4840|  4.6005e+01|  4.6005e+01|   -9.258723|  8.4613e-06|    0.036772|
|        4850|  4.6005e+01|  4.6005e+01|   -9.263282|  8.3616e-06|    0.036765|
|        4860|  4.6005e+01|  4.6005e+01|   -9.267889|  8.2609e-06|    0.036757|
|        4870|  4.6005e+01|  4.6005e+01|   -9.272543|  8.1603e-06|    0.036750|
|        4880|  4.6005e+01|  4.6005e+01|   -9.277324|  8.0609e-06|    0.036743|
|        4890|  4.6005e+01|  4.6005e+01|   -9.282193|  7.9638e-06|    0.036737|
|        4900|  4.6005e+01|  4.6005e+01|   -9.287139|  7.8700e-06|    0.036730|
|        4910|  4.6005e+01|  4.6005e+01|   -9.292130|  7.7798e-06|    0.036723|
|        4920|  4.6005e+01|  4.6005e+01|   -9.297133|  7.6931e-06|    0.036716|
|        4930|  4.6005e+01|  4.6005e+01|   -9.302074|  7.6095e-06|    0.036709|
|        4940|  4.6005e+01|  4.6005e+01|   -9.307017|  7.5282e-06|    0.036703|
|        4950|  4.6005e+01|  4.6005e+01|   -9.311824|  7.4482e-06|    0.036696|
|        4960|  4.6005e+01|  4.6005e+01|   -9.316587|  7.3685e-06|    0.036690|
|        4970|  4.6005e+01|  4.6005e+01|   -9.321276|  7.2882e-06|    0.036684|
|        4980|  4.6005e+01|  4.6005e+01|   -9.325909|  7.2069e-06|    0.036677|
|        4990|  4.6005e+01|  4.6005e+01|   -9.330513|  7.1244e-06|    0.036671|
|        5000|  4.6005e+01|  4.6005e+01|   -9.335119|  7.0409e-06|    0.036665|
+-----------------------------------------------------------------------+
|        File Writing Summary       |              Filename             |
+-----------------------------------------------------------------------+
|SU2 binary restart                 |restart_flow_G4.dat                |
|Paraview                           |flow_G4.vtu                        |
|Paraview surface                   |surface_flow_G4.vtu                |
+-----------------------------------------------------------------------+
+-----------------------------------------------------------------------------+
|  Inner_Iter|     Min CFL|     Max CFL|      rms[P]|  Cauchy[CD]|          CD|
+-----------------------------------------------------------------------------+
|        5010|  4.6005e+01|  4.6005e+01|   -9.339769|  6.9567e-06|    0.036659|
|        5020|  4.6005e+01|  4.6005e+01|   -9.344469|  6.8728e-06|    0.036653|
|        5030|  4.6005e+01|  4.6005e+01|   -9.349274|  6.7899e-06|    0.036647|
|        5040|  4.6005e+01|  4.6005e+01|   -9.354129|  6.7088e-06|    0.036642|
|        5050|  4.6005e+01|  4.6005e+01|   -9.359042|  6.6301e-06|    0.036636|
|        5060|  4.6005e+01|  4.6005e+01|   -9.363991|  6.5540e-06|    0.036630|
|        5070|  4.6005e+01|  4.6005e+01|   -9.368946|  6.4806e-06|    0.036624|
|        5080|  4.6005e+01|  4.6005e+01|   -9.373887|  6.4096e-06|    0.036619|
|        5090|  4.6005e+01|  4.6005e+01|   -9.378780|  6.3404e-06|    0.036613|
|        5100|  4.6005e+01|  4.6005e+01|   -9.383599|  6.2723e-06|    0.036608|
|        5110|  4.6005e+01|  4.6005e+01|   -9.388360|  6.2046e-06|    0.036602|
|        5120|  4.6005e+01|  4.6005e+01|   -9.393069|  6.1368e-06|    0.036597|
|        5130|  4.6005e+01|  4.6005e+01|   -9.397731|  6.0685e-06|    0.036592|
|        5140|  4.6005e+01|  4.6005e+01|   -9.402389|  5.9994e-06|    0.036587|
|        5150|  4.6005e+01|  4.6005e+01|   -9.407030|  5.9298e-06|    0.036581|
|        5160|  4.6005e+01|  4.6005e+01|   -9.411699|  5.8599e-06|    0.036576|
|        5170|  4.6005e+01|  4.6005e+01|   -9.416423|  5.7903e-06|    0.036571|
|        5180|  4.6005e+01|  4.6005e+01|   -9.421215|  5.7216e-06|    0.036566|
|        5190|  4.6005e+01|  4.6005e+01|   -9.426059|  5.6542e-06|    0.036561|
|        5200|  4.6005e+01|  4.6005e+01|   -9.430966|  5.5886e-06|    0.036557|
+-----------------------------------------------------------------------+
|        File Writing Summary       |              Filename             |
+-----------------------------------------------------------------------+
|SU2 binary restart                 |restart_flow_G4.dat                |
|Paraview                           |flow_G4.vtu                        |
|Paraview surface                   |surface_flow_G4.vtu                |
+-----------------------------------------------------------------------+
+-----------------------------------------------------------------------------+
|  Inner_Iter|     Min CFL|     Max CFL|      rms[P]|  Cauchy[CD]|          CD|
+-----------------------------------------------------------------------------+
|        5210|  4.6005e+01|  4.6005e+01|   -9.435906|  5.5249e-06|    0.036552|
|        5220|  4.6005e+01|  4.6005e+01|   -9.440867|  5.4632e-06|    0.036547|
|        5230|  4.6005e+01|  4.6005e+01|   -9.445819|  5.4032e-06|    0.036542|
|        5240|  4.6005e+01|  4.6005e+01|   -9.450735|  5.3446e-06|    0.036538|
|        5250|  4.6005e+01|  4.6005e+01|   -9.455608|  5.2870e-06|    0.036533|
|        5260|  4.6005e+01|  4.6005e+01|   -9.460423|  5.2297e-06|    0.036528|
|        5270|  4.6005e+01|  4.6005e+01|   -9.465187|  5.1725e-06|    0.036524|
|        5280|  4.6005e+01|  4.6005e+01|   -9.469912|  5.1150e-06|    0.036519|
|        5290|  4.6005e+01|  4.6005e+01|   -9.474626|  5.0570e-06|    0.036515|
|        5300|  4.6005e+01|  4.6005e+01|   -9.479330|  4.9987e-06|    0.036511|
|        5310|  4.6005e+01|  4.6005e+01|   -9.484059|  4.9403e-06|    0.036507|
|        5320|  4.6005e+01|  4.6005e+01|   -9.488818|  4.8822e-06|    0.036502|
|        5330|  4.6005e+01|  4.6005e+01|   -9.493612|  4.8246e-06|    0.036498|
|        5340|  4.6005e+01|  4.6005e+01|   -9.498431|  4.7681e-06|    0.036494|
|        5350|  4.6005e+01|  4.6005e+01|   -9.503342|  4.7128e-06|    0.036490|
|        5360|  4.6005e+01|  4.6005e+01|   -9.508276|  4.6589e-06|    0.036486|
|        5370|  4.6005e+01|  4.6005e+01|   -9.513209|  4.6065e-06|    0.036482|
|        5380|  4.6005e+01|  4.6005e+01|   -9.518158|  4.5553e-06|    0.036478|
|        5390|  4.6005e+01|  4.6005e+01|   -9.523085|  4.5053e-06|    0.036474|
|        5400|  4.6005e+01|  4.6005e+01|   -9.527959|  4.4561e-06|    0.036470|
+-----------------------------------------------------------------------+
|        File Writing Summary       |              Filename             |
+-----------------------------------------------------------------------+
|SU2 binary restart                 |restart_flow_G4.dat                |
|Paraview                           |flow_G4.vtu                        |
|Paraview surface                   |surface_flow_G4.vtu                |
+-----------------------------------------------------------------------+
+-----------------------------------------------------------------------------+
|  Inner_Iter|     Min CFL|     Max CFL|      rms[P]|  Cauchy[CD]|          CD|
+-----------------------------------------------------------------------------+
|        5410|  4.6005e+01|  4.6005e+01|   -9.532792|  4.4072e-06|    0.036466|
|        5420|  4.6005e+01|  4.6005e+01|   -9.537585|  4.3584e-06|    0.036462|
|        5430|  4.6005e+01|  4.6005e+01|   -9.542343|  4.3096e-06|    0.036459|
|        5440|  4.6005e+01|  4.6005e+01|   -9.547079|  4.2607e-06|    0.036455|
|        5450|  4.6005e+01|  4.6005e+01|   -9.551807|  4.2116e-06|    0.036451|
|        5460|  4.6005e+01|  4.6005e+01|   -9.556544|  4.1626e-06|    0.036448|
|        5470|  4.6005e+01|  4.6005e+01|   -9.561303|  4.1139e-06|    0.036444|
|        5480|  4.6005e+01|  4.6005e+01|   -9.566106|  4.0657e-06|    0.036441|
|        5490|  4.6005e+01|  4.6005e+01|   -9.570956|  4.0183e-06|    0.036437|
|        5500|  4.6005e+01|  4.6005e+01|   -9.575844|  3.9719e-06|    0.036434|
|        5510|  4.6005e+01|  4.6005e+01|   -9.580776|  3.9265e-06|    0.036430|
|        5520|  4.6005e+01|  4.6005e+01|   -9.585703|  3.8823e-06|    0.036427|
|        5530|  4.6005e+01|  4.6005e+01|   -9.590630|  3.8391e-06|    0.036424|
|        5540|  4.6005e+01|  4.6005e+01|   -9.595543|  3.7968e-06|    0.036420|
|        5550|  4.6005e+01|  4.6005e+01|   -9.600423|  3.7551e-06|    0.036417|
|        5560|  4.6005e+01|  4.6005e+01|   -9.605275|  3.7139e-06|    0.036414|
|        5570|  4.6005e+01|  4.6005e+01|   -9.610093|  3.6729e-06|    0.036410|
|        5580|  4.6005e+01|  4.6005e+01|   -9.614886|  3.6319e-06|    0.036407|
|        5590|  4.6005e+01|  4.6005e+01|   -9.619666|  3.5910e-06|    0.036404|
|        5600|  4.6005e+01|  4.6005e+01|   -9.624443|  3.5500e-06|    0.036401|
+-----------------------------------------------------------------------+
|        File Writing Summary       |              Filename             |
+-----------------------------------------------------------------------+
|SU2 binary restart                 |restart_flow_G4.dat                |
|Paraview                           |flow_G4.vtu                        |
|Paraview surface                   |surface_flow_G4.vtu                |
+-----------------------------------------------------------------------+
+-----------------------------------------------------------------------------+
|  Inner_Iter|     Min CFL|     Max CFL|      rms[P]|  Cauchy[CD]|          CD|
+-----------------------------------------------------------------------------+
|        5610|  4.6005e+01|  4.6005e+01|   -9.629228|  3.5092e-06|    0.036398|
|        5620|  4.6005e+01|  4.6005e+01|   -9.634035|  3.4687e-06|    0.036395|
|        5630|  4.6005e+01|  4.6005e+01|   -9.638876|  3.4285e-06|    0.036392|
|        5640|  4.6005e+01|  4.6005e+01|   -9.643769|  3.3890e-06|    0.036389|
|        5650|  4.6005e+01|  4.6005e+01|   -9.648689|  3.3501e-06|    0.036386|
|        5660|  4.6005e+01|  4.6005e+01|   -9.653631|  3.3121e-06|    0.036383|
|        5670|  4.6005e+01|  4.6005e+01|   -9.658584|  3.2750e-06|    0.036381|
|        5680|  4.6005e+01|  4.6005e+01|   -9.663535|  3.2385e-06|    0.036378|
|        5690|  4.6005e+01|  4.6005e+01|   -9.668485|  3.2028e-06|    0.036375|
|        5700|  4.6005e+01|  4.6005e+01|   -9.673395|  3.1675e-06|    0.036372|
|        5710|  4.6005e+01|  4.6005e+01|   -9.678290|  3.1326e-06|    0.036369|
|        5720|  4.6005e+01|  4.6005e+01|   -9.683157|  3.0980e-06|    0.036367|
|        5730|  4.6005e+01|  4.6005e+01|   -9.687997|  3.0634e-06|    0.036364|
|        5740|  4.6005e+01|  4.6005e+01|   -9.692825|  3.0289e-06|    0.036361|
|        5750|  4.6005e+01|  4.6005e+01|   -9.697648|  2.9944e-06|    0.036359|
|        5760|  4.6005e+01|  4.6005e+01|   -9.702477|  2.9601e-06|    0.036356|
|        5770|  4.6005e+01|  4.6005e+01|   -9.707320|  2.9260e-06|    0.036354|
|        5780|  4.6005e+01|  4.6005e+01|   -9.712182|  2.8922e-06|    0.036351|
|        5790|  4.6005e+01|  4.6005e+01|   -9.717070|  2.8588e-06|    0.036349|
|        5800|  4.6005e+01|  4.6005e+01|   -9.721986|  2.8261e-06|    0.036346|
+-----------------------------------------------------------------------+
|        File Writing Summary       |              Filename             |
+-----------------------------------------------------------------------+
|SU2 binary restart                 |restart_flow_G4.dat                |
|Paraview                           |flow_G4.vtu                        |
|Paraview surface                   |surface_flow_G4.vtu                |
+-----------------------------------------------------------------------+
+-----------------------------------------------------------------------------+
|  Inner_Iter|     Min CFL|     Max CFL|      rms[P]|  Cauchy[CD]|          CD|
+-----------------------------------------------------------------------------+
|        5810|  4.6005e+01|  4.6005e+01|   -9.726921|  2.7939e-06|    0.036344|
|        5820|  4.6005e+01|  4.6005e+01|   -9.731862|  2.7624e-06|    0.036341|
|        5830|  4.6005e+01|  4.6005e+01|   -9.736798|  2.7314e-06|    0.036339|
|        5840|  4.6005e+01|  4.6005e+01|   -9.741724|  2.7010e-06|    0.036337|
|        5850|  4.6005e+01|  4.6005e+01|   -9.746593|  2.6710e-06|    0.036334|
|        5860|  4.6005e+01|  4.6005e+01|   -9.751424|  2.6413e-06|    0.036332|
|        5870|  4.6005e+01|  4.6005e+01|   -9.756275|  2.6119e-06|    0.036330|
|        5880|  4.6005e+01|  4.6005e+01|   -9.761146|  2.5826e-06|    0.036328|
|        5890|  4.6005e+01|  4.6005e+01|   -9.766004|  2.5534e-06|    0.036325|
|        5900|  4.6005e+01|  4.6005e+01|   -9.770832|  2.5244e-06|    0.036323|
|        5910|  4.6005e+01|  4.6005e+01|   -9.775648|  2.4955e-06|    0.036321|
|        5920|  4.6005e+01|  4.6005e+01|   -9.780487|  2.4668e-06|    0.036319|
|        5930|  4.6005e+01|  4.6005e+01|   -9.785354|  2.4384e-06|    0.036317|
|        5940|  4.6005e+01|  4.6005e+01|   -9.790248|  2.4104e-06|    0.036315|
|        5950|  4.6005e+01|  4.6005e+01|   -9.795158|  2.3828e-06|    0.036313|
|        5960|  4.6005e+01|  4.6005e+01|   -9.800084|  2.3557e-06|    0.036311|
|        5970|  4.6005e+01|  4.6005e+01|   -9.805019|  2.3291e-06|    0.036308|
|        5980|  4.6005e+01|  4.6005e+01|   -9.809967|  2.3030e-06|    0.036306|
|        5990|  4.6005e+01|  4.6005e+01|   -9.814919|  2.2773e-06|    0.036304|
|        6000|  4.6005e+01|  4.6005e+01|   -9.819843|  2.2520e-06|    0.036303|
+-----------------------------------------------------------------------+
|        File Writing Summary       |              Filename             |
+-----------------------------------------------------------------------+
|SU2 binary restart                 |restart_flow_G4.dat                |
|Paraview                           |flow_G4.vtu                        |
|Paraview surface                   |surface_flow_G4.vtu                |
+-----------------------------------------------------------------------+
+-----------------------------------------------------------------------------+
|  Inner_Iter|     Min CFL|     Max CFL|      rms[P]|  Cauchy[CD]|          CD|
+-----------------------------------------------------------------------------+
|        6010|  4.6005e+01|  4.6005e+01|   -9.824743|  2.2270e-06|    0.036301|
|        6020|  4.6005e+01|  4.6005e+01|   -9.829625|  2.2021e-06|    0.036299|
|        6030|  4.6005e+01|  4.6005e+01|   -9.834500|  2.1775e-06|    0.036297|
|        6040|  4.6005e+01|  4.6005e+01|   -9.839369|  2.1530e-06|    0.036295|
|        6050|  4.6005e+01|  4.6005e+01|   -9.844233|  2.1286e-06|    0.036293|
|        6060|  4.6005e+01|  4.6005e+01|   -9.849097|  2.1044e-06|    0.036291|
|        6070|  4.6005e+01|  4.6005e+01|   -9.853975|  2.0803e-06|    0.036289|
|        6080|  4.6005e+01|  4.6005e+01|   -9.858864|  2.0565e-06|    0.036288|
|        6090|  4.6005e+01|  4.6005e+01|   -9.863771|  2.0330e-06|    0.036286|
|        6100|  4.6005e+01|  4.6005e+01|   -9.868693|  2.0099e-06|    0.036284|
|        6110|  4.6005e+01|  4.6005e+01|   -9.873626|  1.9871e-06|    0.036282|
|        6120|  4.6005e+01|  4.6005e+01|   -9.878568|  1.9647e-06|    0.036281|
|        6130|  4.6005e+01|  4.6005e+01|   -9.883513|  1.9426e-06|    0.036279|
|        6140|  4.6005e+01|  4.6005e+01|   -9.888455|  1.9209e-06|    0.036277|
|        6150|  4.6005e+01|  4.6005e+01|   -9.893385|  1.8995e-06|    0.036276|
|        6160|  4.6005e+01|  4.6005e+01|   -9.898300|  1.8783e-06|    0.036274|
|        6170|  4.6005e+01|  4.6005e+01|   -9.903203|  1.8573e-06|    0.036272|
|        6180|  4.6005e+01|  4.6005e+01|   -9.908094|  1.8365e-06|    0.036271|
|        6190|  4.6005e+01|  4.6005e+01|   -9.912977|  1.8158e-06|    0.036269|
|        6200|  4.6005e+01|  4.6005e+01|   -9.917855|  1.7952e-06|    0.036268|
+-----------------------------------------------------------------------+
|        File Writing Summary       |              Filename             |
+-----------------------------------------------------------------------+
|SU2 binary restart                 |restart_flow_G4.dat                |
|Paraview                           |flow_G4.vtu                        |
|Paraview surface                   |surface_flow_G4.vtu                |
+-----------------------------------------------------------------------+
+-----------------------------------------------------------------------------+
|  Inner_Iter|     Min CFL|     Max CFL|      rms[P]|  Cauchy[CD]|          CD|
+-----------------------------------------------------------------------------+
|        6210|  4.6005e+01|  4.6005e+01|   -9.922733|  1.7748e-06|    0.036266|
|        6220|  4.6005e+01|  4.6005e+01|   -9.927616|  1.7545e-06|    0.036265|
|        6230|  4.6005e+01|  4.6005e+01|   -9.932515|  1.7345e-06|    0.036263|
|        6240|  4.6005e+01|  4.6005e+01|   -9.937445|  1.7147e-06|    0.036262|
|        6250|  4.6005e+01|  4.6005e+01|   -9.942368|  1.6952e-06|    0.036260|
|        6260|  4.6005e+01|  4.6005e+01|   -9.947303|  1.6759e-06|    0.036259|
|        6270|  4.6005e+01|  4.6005e+01|   -9.952244|  1.6570e-06|    0.036257|
|        6280|  4.6005e+01|  4.6005e+01|   -9.957204|  1.6384e-06|    0.036256|
|        6290|  4.6005e+01|  4.6005e+01|   -9.962141|  1.6200e-06|    0.036254|
|        6300|  4.6005e+01|  4.6005e+01|   -9.967072|  1.6019e-06|    0.036253|
|        6310|  4.6005e+01|  4.6005e+01|   -9.971994|  1.5839e-06|    0.036252|
|        6320|  4.6005e+01|  4.6005e+01|   -9.976905|  1.5662e-06|    0.036250|
|        6330|  4.6005e+01|  4.6005e+01|   -9.981804|  1.5486e-06|    0.036249|
|        6340|  4.6005e+01|  4.6005e+01|   -9.986697|  1.5312e-06|    0.036248|
|        6350|  4.6005e+01|  4.6005e+01|   -9.991590|  1.5138e-06|    0.036246|
|        6360|  4.6005e+01|  4.6005e+01|   -9.996484|  1.4966e-06|    0.036245|
|        6370|  4.6005e+01|  4.6005e+01|  -10.001388|  1.4796e-06|    0.036244|
|        6380|  4.6005e+01|  4.6005e+01|  -10.006292|  1.4627e-06|    0.036242|
|        6390|  4.6005e+01|  4.6005e+01|  -10.011207|  1.4460e-06|    0.036241|
|        6400|  4.6005e+01|  4.6005e+01|  -10.016137|  1.4296e-06|    0.036240|
+-----------------------------------------------------------------------+
|        File Writing Summary       |              Filename             |
+-----------------------------------------------------------------------+
|SU2 binary restart                 |restart_flow_G4.dat                |
|Paraview                           |flow_G4.vtu                        |
|Paraview surface                   |surface_flow_G4.vtu                |
+-----------------------------------------------------------------------+
+-----------------------------------------------------------------------------+
|  Inner_Iter|     Min CFL|     Max CFL|      rms[P]|  Cauchy[CD]|          CD|
+-----------------------------------------------------------------------------+
|        6410|  4.6005e+01|  4.6005e+01|  -10.021078|  1.4133e-06|    0.036239|
|        6420|  4.6005e+01|  4.6005e+01|  -10.026024|  1.3973e-06|    0.036237|
|        6430|  4.6005e+01|  4.6005e+01|  -10.030983|  1.3816e-06|    0.036236|
|        6440|  4.6005e+01|  4.6005e+01|  -10.035939|  1.3660e-06|    0.036235|
|        6450|  4.6005e+01|  4.6005e+01|  -10.040882|  1.3507e-06|    0.036234|
|        6460|  4.6005e+01|  4.6005e+01|  -10.045814|  1.3355e-06|    0.036233|
|        6470|  4.6005e+01|  4.6005e+01|  -10.050736|  1.3205e-06|    0.036232|
|        6480|  4.6005e+01|  4.6005e+01|  -10.055648|  1.3057e-06|    0.036230|
|        6490|  4.6005e+01|  4.6005e+01|  -10.060556|  1.2909e-06|    0.036229|
|        6500|  4.6005e+01|  4.6005e+01|  -10.065445|  1.2763e-06|    0.036228|
|        6510|  4.6005e+01|  4.6005e+01|  -10.070347|  1.2618e-06|    0.036227|
|        6520|  4.6005e+01|  4.6005e+01|  -10.075251|  1.2474e-06|    0.036226|
|        6530|  4.6005e+01|  4.6005e+01|  -10.080159|  1.2332e-06|    0.036225|
|        6540|  4.6005e+01|  4.6005e+01|  -10.085082|  1.2191e-06|    0.036224|
|        6550|  4.6005e+01|  4.6005e+01|  -10.090011|  1.2052e-06|    0.036223|
|        6560|  4.6005e+01|  4.6005e+01|  -10.094945|  1.1915e-06|    0.036222|
|        6570|  4.6005e+01|  4.6005e+01|  -10.099882|  1.1780e-06|    0.036221|
|        6580|  4.6005e+01|  4.6005e+01|  -10.104819|  1.1647e-06|    0.036220|
|        6590|  4.6005e+01|  4.6005e+01|  -10.109755|  1.1515e-06|    0.036219|
|        6600|  4.6005e+01|  4.6005e+01|  -10.114690|  1.1385e-06|    0.036218|
+-----------------------------------------------------------------------+
|        File Writing Summary       |              Filename             |
+-----------------------------------------------------------------------+
|SU2 binary restart                 |restart_flow_G4.dat                |
|Paraview                           |flow_G4.vtu                        |
|Paraview surface                   |surface_flow_G4.vtu                |
+-----------------------------------------------------------------------+
+-----------------------------------------------------------------------------+
|  Inner_Iter|     Min CFL|     Max CFL|      rms[P]|  Cauchy[CD]|          CD|
+-----------------------------------------------------------------------------+
|        6610|  4.6005e+01|  4.6005e+01|  -10.119623|  1.1257e-06|    0.036217|
|        6620|  4.6005e+01|  4.6005e+01|  -10.124549|  1.1130e-06|    0.036216|
|        6630|  4.6005e+01|  4.6005e+01|  -10.129463|  1.1005e-06|    0.036215|
|        6640|  4.6005e+01|  4.6005e+01|  -10.134368|  1.0880e-06|    0.036214|
|        6650|  4.6005e+01|  4.6005e+01|  -10.139272|  1.0757e-06|    0.036213|
|        6660|  4.6005e+01|  4.6005e+01|  -10.144180|  1.0635e-06|    0.036212|
|        6670|  4.6005e+01|  4.6005e+01|  -10.149088|  1.0514e-06|    0.036211|
|        6680|  4.6005e+01|  4.6005e+01|  -10.154000|  1.0394e-06|    0.036210|
|        6690|  4.6005e+01|  4.6005e+01|  -10.158920|  1.0275e-06|    0.036209|
|        6700|  4.6005e+01|  4.6005e+01|  -10.163848|  1.0159e-06|    0.036209|
|        6710|  4.6005e+01|  4.6005e+01|  -10.168782|  1.0043e-06|    0.036208|
|        6714|  4.6005e+01|  4.6005e+01|  -10.170757|  9.9975e-07|    0.036207|

----------------------------- Solver Exit -------------------------------
All convergence criteria satisfied.
+-----------------------------------------------------------------------+
|      Convergence Field     |     Value    |   Criterion  |  Converged |
+-----------------------------------------------------------------------+
|                      rms[P]|      -10.1708|          < -9|         Yes|
|                  Cauchy[CD]|   9.99747e-07|       < 1e-06|         Yes|
+-----------------------------------------------------------------------+
-------------------------------------------------------------------------
+-----------------------------------------------------------------------+
|        File Writing Summary       |              Filename             |
+-----------------------------------------------------------------------+
|SU2 binary restart                 |restart_flow_G4.dat                |
|Paraview                           |flow_G4.vtu                        |
|Paraview surface                   |surface_flow_G4.vtu                |
+-----------------------------------------------------------------------+

------------------------- Solver Postprocessing -------------------------
Deleted CNumerics container.
Deleted CIntegration container.
Deleted CSolver container.
Deleted CIteration container.
Deleted CInterface container.
Deleted CGeometry container.
Deleted CFreeFormDefBox class.
Deleted CSurfaceMovement class.
Deleted CVolumetricMovement class.
Deleted CConfig container.
Deleted nInst container.
Deleted COutput class.
-------------------------------------------------------------------------

------------------------- Exit Success (SU2_CFD) ------------------------

