
-------------------------------------------------------------------------
|    ___ _   _ ___                                                      |
|   / __| | | |_  )   Release 7.4.0 "Blackbird"                         |
|   \__ \ |_| |/ /                                                      |
|   |___/\___//___|   Suite (Computational Fluid Dynamics Code)         |
|                                                                       |
-------------------------------------------------------------------------
| SU2 Project Website: https://su2code.github.io                        |
|                                                                       |
| The SU2 Project is maintained by the SU2 Foundation                   |
| (http://su2foundation.org)                                            |
-------------------------------------------------------------------------
| Copyright 2012-2022, SU2 Contributors                                 |
|                                                                       |
| SU2 is free software; you can redistribute it and/or                  |
| modify it under the terms of the GNU Lesser General Public            |
| License as published by the Free Software Foundation; either          |
| version 2.1 of the License, or (at your option) any later version.    |
|                                                                       |
| SU2 is distributed in the hope that it will be useful,                |
| but WITHOUT ANY WARRANTY; without even the implied warranty of        |
| MERCHANTABILITY or FITNESS FOR A PARTICULAR PURPOSE. See the GNU      |
| Lesser General Public License for more details.                       |
|                                                                       |
| You should have received a copy of the GNU Lesser General Public      |
| License along with SU2. If not, see <http://www.gnu.org/licenses/>.   |
-------------------------------------------------------------------------

Parsing config file for zone 0

----------------- Physical Case Definition ( Zone 0 ) -------------------
Incompressible RANS equations.
Turbulence model: Spalart-Allmaras-noft2
Hybrid RANS/LES: No Hybrid RANS/LES
No restart solution, use the values at infinity (freestream).
Non-Dimensional simulation using intialization values.
The reference area is 1 m^2.
The semi-span will be computed using the max y(3D) value.
The reference length is 1.00898 m.
Reference origin for moment evaluation is (-0.756, 0, 0).
Surface(s) where the force coefficients are evaluated: AIRFOIL.

Surface(s) plotted in the output file: AIRFOIL.
Input mesh file name: ../meshG5/meshG5.su2

--------------- Space Numerical Integration ( Zone 0 ) ------------------
Flux difference splitting (FDS) upwind scheme for the flow inviscid terms.
First order integration in space.
Average of gradients with correction (viscous flow terms).
Average of gradients with correction (viscous turbulence terms).
Gradient for upwind reconstruction: unweighted Least-Squares.
Gradient for viscous and source terms: Green-Gauss.

--------------- Time Numerical Integration  ( Zone 0 ) ------------------
Local time stepping (steady state simulation).
Euler implicit method for the flow equations.
FGMRES is used for solving the linear system.
Using a ILU(0) preconditioning.
Convergence criteria of the linear solver: 1e-06.
Max number of linear iterations: 10.
CFL adaptation. Factor down: 0.1, factor up: 1.2,
                lower limit: 1, upper limit: 1000,
                acceptable linear residual: 0.001.
Courant-Friedrichs-Lewy number:        2
Euler implicit time integration for the turbulence model.

------------------ Convergence Criteria  ( Zone 0 ) ---------------------
Maximum number of solver subiterations: 9999.
Begin convergence monitoring at iteration 10.
Residual minimum value: 1e-9.
Cauchy series min. value: 1e-06.
Number of Cauchy elements: 250.
Begin windowed time average at iteration 0.

-------------------- Output Information ( Zone 0 ) ----------------------
File writing frequency: 
+------------------------------------+
|                     File| Frequency|
+------------------------------------+
|                  RESTART|       200|
|                 PARAVIEW|       200|
|         SURFACE_PARAVIEW|       200|
+------------------------------------+
Writing the convergence history file every 1 inner iterations.
Writing the screen convergence history every 10 inner iterations.
The tabular file format is CSV (.csv).
Convergence history file name: history_aoa14.
Forces breakdown file name: forces_breakdown.dat.
Surface file name: surface_flow_aoa14.
Volume file name: flow_aoa14.
Restart file name: restart_flow_aoa14.dat.

------------- Config File Boundary Information ( Zone 0 ) ---------------
+-----------------------------------------------------------------------+
|                        Marker Type|                        Marker Name|
+-----------------------------------------------------------------------+
|                          Far-field|                           FARFIELD|
+-----------------------------------------------------------------------+
|                     Heat flux wall|                            AIRFOIL|
+-----------------------------------------------------------------------+

-------------------- Output Preprocessing ( Zone 0 ) --------------------

WARNING: SURFACE_PRESSURE_DROP can only be computed for at least 2 surfaces (outlet, inlet, ...)

Screen output fields: INNER_ITER, MIN_CFL, MAX_CFL, RMS_PRESSURE, CAUCHY_DRAG, DRAG
History output group(s): INNER_ITER, MIN_CFL, MAX_CFL, RMS_RES, LIFT, DRAG, MOMENT_Z, CAUCHY
Convergence field(s): RMS_PRESSURE, DRAG
Warning: No (valid) fields chosen for time convergence monitoring. Time convergence monitoring inactive.
Volume output fields: COORDINATES, SOLUTION, PRIMITIVE, RESIDUAL, MESH_QUALITY

------------------- Geometry Preprocessing ( Zone 0 ) -------------------
Two dimensional problem.
361479 grid points before partitioning.
360180 volume elements before partitioning.
2 surface markers.
724 boundary elements in index 0 (Marker = AIRFOIL).
1874 boundary elements in index 1 (Marker = FARFIELD).
Executing the partitioning functions.
Building the graph adjacency structure.
Calling ParMETIS... graph partitioning complete (4050 edge cuts).
Distributing ParMETIS coloring.
Rebalancing vertices.
Rebalancing volume element connectivity.
Rebalancing markers and surface elements.
369602 vertices including ghost points. 
364230 interior elements including halo cells. 
364230 quadrilaterals.
Establishing MPI communication patterns.
Setting point connectivity.
Renumbering points (Reverse Cuthill McKee Ordering).
Recomputing point connectivity.
Setting element connectivity.
Checking the numerical grid orientation.
All volume elements are correctly orientend.
There has been a re-orientation of 1305 LINE surface elements.
Identifying edges and vertices.
Setting the control volume structure.
Area of the computational grid: 103207.
Searching for the closest normal neighbors to the surfaces.
Storing a mapping from global to local point index.
Compute the surface curvature.
Max K: 227502. Mean K: 205.598. Standard deviation K: 4719.73.
Checking for periodicity.
Computing mesh quality statistics for the dual control volumes.
+--------------------------------------------------------------+
|           Mesh Quality Metric|        Minimum|        Maximum|
+--------------------------------------------------------------+
|    Orthogonality Angle (deg.)|        75.9136|             90|
|     CV Face Area Aspect Ratio|        1.00002|    3.17894e+06|
|           CV Sub-Volume Ratio|              1|         387.07|
+--------------------------------------------------------------+
Finding max control volume width.
Communicating number of neighbors.
Wetted area = 2.0597 m.
Area projection in the x-plane = 0.121116 m, y-plane = 1.00881 m.
Max. coordinate in the x-direction = 1.00898 m, y-direction = 0.0759837 m.
Min. coordinate in the x-direction = 4.86614e-06 m, y-direction = -0.0451345 m.
Computing wall distances.

-------------------- Solver Preprocessing ( Zone 0 ) --------------------
Incompressible flow: rho_ref, vel_ref, and temp_ref
are based on the initial values, p_ref = rho_ref*vel_ref^2.
Force coefficients computed using initial values.
The reference area for force coeffs. is 1 m^2.
The reference length for force coeffs. is 1.00898 m.
The pressure is decomposed into thermodynamic and dynamic components.
The initial value of the dynamic pressure is 0.
Mach number: 0.0276747, computed using the Bulk modulus.
For external flows, the initial state is imposed at the far-field.
Angle of attack (deg): 14, computed using the initial velocity.
Side slip angle (deg): 0, computed using the initial velocity.
Reynolds number per meter: 595000, computed using initial values.
Reynolds number is a byproduct of inputs only (not used internally).
SI units only. The grid should be dimensional (meters).
No energy equation.

-- Models:
+------------------------------------------------------------------------------+
|          Viscosity Model|        Conductivity Model|              Fluid Model|
+------------------------------------------------------------------------------+
|       CONSTANT_VISCOSITY|          CONSTANT_PRANDTL|         CONSTANT_DENSITY|
+------------------------------------------------------------------------------+
-- Fluid properties:
+------------------------------------------------------------------------------+
|                  Name|    Dim. value|    Ref. value|      Unit|Non-dim. value|
+------------------------------------------------------------------------------+
|             Viscosity|      1.92e-05|        11.424|   N.s/m^2|   1.68067e-06|
+------------------------------------------------------------------------------+
|        Prandtl (Lam.)|             -|             -|         -|          0.72|
|       Prandtl (Turb.)|             -|             -|         -|           0.9|
+------------------------------------------------------------------------------+
|          Bulk Modulus|        142000|             1|        Pa|        142000|
+------------------------------------------------------------------------------+
-- Initial and free-stream conditions:
+------------------------------------------------------------------------------+
|                  Name|    Dim. value|    Ref. value|      Unit|Non-dim. value|
+------------------------------------------------------------------------------+
|      Dynamic Pressure|             0|       108.757|        Pa|             0|
|        Total Pressure|       54.3783|       108.757|        Pa|           0.5|
|               Density|           1.2|           1.2|    kg/m^3|             1|
|            Velocity-X|       9.23722|       9.52001|       m/s|      0.970296|
|            Velocity-Y|        2.3031|       9.52001|       m/s|      0.241922|
|    Velocity Magnitude|       9.52001|       9.52001|       m/s|             1|
+------------------------------------------------------------------------------+
|             Viscosity|      1.92e-05|        11.424|   N.s/m^2|   1.68067e-06|
|          Conductivity|             -|       3.59314|   W/m^2.K|             -|
|     Turb. Kin. Energy|       1.35946|       90.6305|   m^2/s^2|         0.015|
|     Spec. Dissipation|       8496.61|       9.52001|       1/s|       892.501|
+------------------------------------------------------------------------------+
|           Mach Number|             -|             -|         -|     0.0276747|
|       Reynolds Number|             -|             -|         -|        595000|
+------------------------------------------------------------------------------+
Initialize Jacobian structure (Navier-Stokes). MG level: 0.
Initialize Jacobian structure (SA model).

------------------- Numerics Preprocessing ( Zone 0 ) -------------------

----------------- Integration Preprocessing ( Zone 0 ) ------------------

------------------- Iteration Preprocessing ( Zone 0 ) ------------------
Euler/Navier-Stokes/RANS fluid iteration.

------------------------------ Begin Solver -----------------------------

Simulation Run using the Single-zone Driver
+-----------------------------------------------------------------------------+
|  Inner_Iter|     Min CFL|     Max CFL|      rms[P]|  Cauchy[CD]|          CD|
+-----------------------------------------------------------------------------+
|           0|  2.4000e+00|  2.4000e+00|   -4.390320|  1.0000e+00|    0.672608|
|          10|  1.4860e+01|  1.4860e+01|   -5.120427|  1.1839e-03|    0.887669|
|          20|  7.6675e+00|  7.6675e+00|   -5.289027|  1.2765e-03|    0.867392|
|          30|  3.2969e+00|  3.2969e+00|   -5.218509|  1.5663e-03|    0.807104|
|          40|  2.0413e+01|  2.0413e+01|   -5.169916|  1.8119e-03|    0.759218|
|          50|  1.0533e+01|  1.0533e+01|   -5.128538|  2.5248e-03|    0.636800|
|          60|  5.4348e+00|  5.4348e+00|   -5.117369|  3.5000e-03|    0.501006|
|          70|  3.3651e+01|  3.3651e+01|   -5.105997|  4.2880e-03|    0.412463|
|          80|  1.7363e+01|  1.7363e+01|   -5.128311|  5.5456e-03|    0.303525|
|          90|  4.3205e+01|  4.3205e+01|   -5.236869|  8.3601e-03|    0.154089|
|         100|  4.3205e+01|  4.3205e+01|   -5.285004|  1.1128e-02|    0.075588|
|         110|  4.3205e+01|  4.3205e+01|   -5.310685|  1.4022e-02|    0.003242|
|         120|  1.2901e+01|  1.2901e+01|   -5.304905|  1.5454e-02|   -0.032580|
|         130|  6.6565e+00|  6.6565e+00|   -5.310881|  1.6088e-02|   -0.026858|
|         140|  4.1216e+01|  4.1216e+01|   -5.314923|  1.7427e-02|    0.006614|
|         150|  2.1266e+01|  2.1266e+01|   -5.325582|  1.9631e-02|    0.061722|
|         160|  1.0973e+01|  1.0973e+01|   -5.323208|  2.2837e-02|    0.156782|
|         170|  4.7182e+01|  4.7182e+01|   -5.322301|  2.4718e-02|    0.253919|
|         180|  5.6618e+00|  5.6618e+00|   -5.349916|  2.5505e-02|    0.286808|
|         190|  3.5056e+01|  3.5056e+01|   -5.340510|  2.5878e-02|    0.261440|
|         200|  8.7231e+00|  8.7231e+00|   -5.333917|  2.8000e-02|    0.156441|
+-----------------------------------------------------------------------+
|        File Writing Summary       |              Filename             |
+-----------------------------------------------------------------------+
|SU2 binary restart                 |restart_flow_aoa14.dat             |
|Paraview                           |flow_aoa14.vtu                     |
|Paraview surface                   |surface_flow_aoa14.vtu             |
+-----------------------------------------------------------------------+
+-----------------------------------------------------------------------------+
|  Inner_Iter|     Min CFL|     Max CFL|      rms[P]|  Cauchy[CD]|          CD|
+-----------------------------------------------------------------------------+
|         210|  5.4011e+01|  5.4011e+01|   -5.321467|  2.9366e-02|    0.111924|
|         220|  2.7869e+01|  2.7869e+01|   -5.323701|  2.9987e-02|    0.095953|
|         230|  1.4380e+01|  1.4380e+01|   -5.345903|  3.0281e-02|    0.098782|
|         240|  5.1525e+01|  5.1525e+01|   -5.357808|  3.1332e-02|    0.129031|
|         250|  2.2155e+01|  2.2155e+01|   -5.372885|  3.1917e-02|    0.149662|
|         260|  1.1431e+01|  1.1431e+01|   -5.385195|  3.1032e-02|    0.161302|
|         270|  5.8983e+00|  5.8983e+00|   -5.376750|  3.1040e-02|    0.165439|
|         280|  3.6521e+01|  3.6521e+01|   -5.369801|  3.0778e-02|    0.166578|
|         290|  6.3108e+00|  6.3108e+00|   -5.406243|  3.0685e-02|    0.173069|
|         300|  3.9075e+01|  3.9075e+01|   -5.430624|  2.9991e-02|    0.172653|
|         310|  2.0162e+01|  2.0162e+01|   -5.451239|  2.9156e-02|    0.166711|
|         320|  1.0403e+01|  1.0403e+01|   -5.458067|  2.8803e-02|    0.149677|
|         330|  5.3677e+01|  5.3677e+01|   -5.447119|  2.8124e-02|    0.129668|
|         340|  6.4413e+01|  6.4413e+01|   -5.440755|  2.5946e-02|    0.110775|
|         350|  3.3236e+01|  3.3236e+01|   -5.468156|  2.3267e-02|    0.113260|
|         360|  5.7431e+01|  5.7431e+01|   -5.577188|  2.1051e-02|    0.134373|
|         370|  1.1909e+01|  1.1909e+01|   -5.598133|  2.0058e-02|    0.150108|
|         380|  6.1447e+00|  6.1447e+00|   -5.585741|  1.9599e-02|    0.156861|
|         390|  3.8047e+01|  3.8047e+01|   -5.589445|  1.8278e-02|    0.157084|
|         400|  5.4787e+01|  5.4787e+01|   -5.662894|  1.6464e-02|    0.142571|
+-----------------------------------------------------------------------+
|        File Writing Summary       |              Filename             |
+-----------------------------------------------------------------------+
|SU2 binary restart                 |restart_flow_aoa14.dat             |
|Paraview                           |flow_aoa14.vtu                     |
|Paraview surface                   |surface_flow_aoa14.vtu             |
+-----------------------------------------------------------------------+
+-----------------------------------------------------------------------------+
|  Inner_Iter|     Min CFL|     Max CFL|      rms[P]|  Cauchy[CD]|          CD|
+-----------------------------------------------------------------------------+
|         410|  2.8269e+01|  2.8269e+01|   -5.721504|  1.3540e-02|    0.132922|
|         420|  1.4586e+01|  1.4586e+01|   -5.767565|  1.1961e-02|    0.123318|
|         430|  7.5261e+00|  7.5261e+00|   -5.789198|  1.1431e-02|    0.115671|
|         440|  4.6600e+01|  4.6600e+01|   -5.789990|  1.1132e-02|    0.113558|
|         450|  1.1596e+01|  1.1596e+01|   -5.817805|  9.1076e-03|    0.116036|
|         460|  5.9830e+00|  5.9830e+00|   -5.853008|  7.9220e-03|    0.121426|
|         470|  3.7045e+01|  3.7045e+01|   -5.893416|  7.4050e-03|    0.124623|
|         480|  1.9115e+01|  1.9115e+01|   -5.970640|  7.2620e-03|    0.129433|
|         490|  9.8627e+00|  9.8627e+00|   -6.027687|  6.3140e-03|    0.132817|
|         500|  6.1067e+01|  6.1067e+01|   -6.006402|  5.7471e-03|    0.132924|
|         510|  6.1067e+01|  6.1067e+01|   -5.970048|  5.6585e-03|    0.126166|
|         520|  1.8235e+01|  1.8235e+01|   -6.075053|  5.7076e-03|    0.121527|
|         530|  9.4087e+00|  9.4087e+00|   -6.269699|  5.8063e-03|    0.117763|
|         540|  5.8256e+01|  5.8256e+01|   -6.359088|  5.7023e-03|    0.116341|
|         550|  2.5049e+01|  2.5049e+01|   -6.274350|  5.6994e-03|    0.116637|
|         560|  6.2330e+01|  6.2330e+01|   -6.194443|  5.6804e-03|    0.120241|
|         570|  3.2161e+01|  3.2161e+01|   -6.248327|  5.2901e-03|    0.121586|
|         580|  1.6594e+01|  1.6594e+01|   -6.416224|  4.7430e-03|    0.122568|
|         590|  5.9460e+01|  5.9460e+01|   -6.487002|  4.1430e-03|    0.121499|
|         600|  2.1306e+01|  2.1306e+01|   -6.306747|  4.1238e-03|    0.119412|
+-----------------------------------------------------------------------+
|        File Writing Summary       |              Filename             |
+-----------------------------------------------------------------------+
|SU2 binary restart                 |restart_flow_aoa14.dat             |
|Paraview                           |flow_aoa14.vtu                     |
|Paraview surface                   |surface_flow_aoa14.vtu             |
+-----------------------------------------------------------------------+
+-----------------------------------------------------------------------------+
|  Inner_Iter|     Min CFL|     Max CFL|      rms[P]|  Cauchy[CD]|          CD|
+-----------------------------------------------------------------------------+
|         610|  1.0993e+01|  1.0993e+01|   -6.255703|  3.5110e-03|    0.117499|
|         620|  6.8068e+01|  6.8068e+01|   -6.294037|  3.1163e-03|    0.116196|
|         630|  3.5121e+01|  3.5121e+01|   -6.401059|  2.9601e-03|    0.115632|
|         640|  6.0690e+01|  6.0690e+01|   -6.559895|  2.9553e-03|    0.115359|
|         650|  6.0690e+01|  6.0690e+01|   -6.408231|  2.5846e-03|    0.115918|
|         660|  6.0690e+01|  6.0690e+01|   -6.616823|  2.3239e-03|    0.115448|
|         670|  6.0690e+01|  6.0690e+01|   -6.545471|  2.1156e-03|    0.112787|
|         680|  6.0690e+01|  6.0690e+01|   -6.481359|  1.9510e-03|    0.110215|
|         690|  2.6095e+01|  2.6095e+01|   -6.577637|  1.8939e-03|    0.109754|
|         700|  6.4934e+01|  6.4934e+01|   -6.700492|  1.8103e-03|    0.110067|
|         710|  6.4934e+01|  6.4934e+01|   -6.648262|  1.6546e-03|    0.110765|
|         720|  6.4934e+01|  6.4934e+01|   -6.772584|  1.5732e-03|    0.110172|
|         730|  6.4934e+01|  6.4934e+01|   -6.709513|  1.4861e-03|    0.108427|
|         740|  6.4934e+01|  6.4934e+01|   -6.709762|  1.4290e-03|    0.107190|
|         750|  6.4934e+01|  6.4934e+01|   -6.803536|  1.4244e-03|    0.107423|
|         760|  9.3505e+00|  9.3505e+00|   -6.877661|  1.2371e-03|    0.108014|
|         770|  5.7896e+01|  5.7896e+01|   -6.917316|  1.0889e-03|    0.108060|
|         780|  2.9873e+01|  2.9873e+01|   -6.965916|  9.6784e-04|    0.107925|
|         790|  1.5414e+01|  1.5414e+01|   -6.974504|  9.3604e-04|    0.107471|
|         800|  6.6276e+01|  6.6276e+01|   -6.929729|  9.4665e-04|    0.106759|
+-----------------------------------------------------------------------+
|        File Writing Summary       |              Filename             |
+-----------------------------------------------------------------------+
|SU2 binary restart                 |restart_flow_aoa14.dat             |
|Paraview                           |flow_aoa14.vtu                     |
|Paraview surface                   |surface_flow_aoa14.vtu             |
+-----------------------------------------------------------------------+
+-----------------------------------------------------------------------------+
|  Inner_Iter|     Min CFL|     Max CFL|      rms[P]|  Cauchy[CD]|          CD|
+-----------------------------------------------------------------------------+
|         810|  6.6276e+01|  6.6276e+01|   -6.878824|  8.5639e-04|    0.105929|
|         820|  6.6276e+01|  6.6276e+01|   -6.883695|  8.2551e-04|    0.106230|
|         830|  6.6276e+01|  6.6276e+01|   -6.908792|  8.2161e-04|    0.106984|
|         840|  6.6276e+01|  6.6276e+01|   -6.931570|  7.9440e-04|    0.107066|
|         850|  6.6276e+01|  6.6276e+01|   -6.913600|  7.4925e-04|    0.106420|
|         860|  6.6276e+01|  6.6276e+01|   -6.890237|  7.0334e-04|    0.105921|
|         870|  6.6276e+01|  6.6276e+01|   -6.892091|  6.6714e-04|    0.106111|
|         880|  6.6276e+01|  6.6276e+01|   -6.909557|  6.6633e-04|    0.106607|
|         890|  7.9532e+00|  7.9532e+00|   -6.929605|  6.6030e-04|    0.106758|
|         900|  4.9244e+01|  4.9244e+01|   -6.940024|  6.4315e-04|    0.106700|
|         910|  2.5409e+01|  2.5409e+01|   -6.946872|  6.2670e-04|    0.106569|
|         920|  1.3110e+01|  1.3110e+01|   -6.948557|  5.4108e-04|    0.106362|
|         930|  8.1176e+01|  8.1176e+01|   -6.945931|  4.5517e-04|    0.106190|
|         940|  4.1885e+01|  4.1885e+01|   -6.947311|  4.4138e-04|    0.106112|
|         950|  7.2377e+01|  7.2377e+01|   -6.935341|  4.3037e-04|    0.106134|
|         960|  7.2377e+01|  7.2377e+01|   -6.931202|  4.1147e-04|    0.106303|
|         970|  1.2507e+01|  1.2507e+01|   -6.942085|  3.9102e-04|    0.106298|
|         980|  7.7439e+01|  7.7439e+01|   -6.947542|  3.3032e-04|    0.106212|
|         990|  7.7439e+01|  7.7439e+01|   -6.960623|  2.9495e-04|    0.105932|
|        1000|  7.7439e+01|  7.7439e+01|   -6.973150|  2.8813e-04|    0.105746|
+-----------------------------------------------------------------------+
|        File Writing Summary       |              Filename             |
+-----------------------------------------------------------------------+
|SU2 binary restart                 |restart_flow_aoa14.dat             |
|Paraview                           |flow_aoa14.vtu                     |
|Paraview surface                   |surface_flow_aoa14.vtu             |
+-----------------------------------------------------------------------+
+-----------------------------------------------------------------------------+
|  Inner_Iter|     Min CFL|     Max CFL|      rms[P]|  Cauchy[CD]|          CD|
+-----------------------------------------------------------------------------+
|        1010|  7.7439e+01|  7.7439e+01|   -6.982792|  2.6921e-04|    0.105666|
|        1020|  7.7439e+01|  7.7439e+01|   -6.999267|  2.7238e-04|    0.105525|
|        1030|  7.7439e+01|  7.7439e+01|   -7.025790|  2.7647e-04|    0.105286|
|        1040|  7.7439e+01|  7.7439e+01|   -7.060655|  2.6881e-04|    0.105044|
|        1050|  7.7439e+01|  7.7439e+01|   -7.101424|  2.4930e-04|    0.104858|
|        1060|  1.1151e+01|  1.1151e+01|   -7.143877|  2.2368e-04|    0.104711|
|        1070|  6.9045e+01|  6.9045e+01|   -7.156889|  2.1308e-04|    0.104634|
|        1080|  3.5626e+01|  3.5626e+01|   -7.175448|  1.8785e-04|    0.104554|
|        1090|  7.3874e+01|  7.3874e+01|   -7.205560|  1.8621e-04|    0.104354|
|        1100|  7.3874e+01|  7.3874e+01|   -7.237891|  1.7051e-04|    0.104132|
|        1110|  2.6470e+01|  2.6470e+01|   -7.253209|  1.5552e-04|    0.104033|
|        1120|  1.3658e+01|  1.3658e+01|   -7.262029|  1.5033e-04|    0.103949|
|        1130|  8.4567e+01|  8.4567e+01|   -7.265981|  1.3477e-04|    0.103869|
|        1140|  4.3635e+01|  4.3635e+01|   -7.269930|  1.3041e-04|    0.103807|
|        1150|  2.2515e+01|  2.2515e+01|   -7.273089|  1.3196e-04|    0.103711|
|        1160|  8.0674e+01|  8.0674e+01|   -7.269311|  1.3243e-04|    0.103572|
|        1170|  8.0674e+01|  8.0674e+01|   -7.259585|  1.3204e-04|    0.103380|
|        1180|  8.0674e+01|  8.0674e+01|   -7.246352|  1.3145e-04|    0.103228|
|        1190|  8.0674e+01|  8.0674e+01|   -7.235352|  1.3383e-04|    0.103090|
|        1200|  8.0674e+01|  8.0674e+01|   -7.227370|  1.3621e-04|    0.102954|
+-----------------------------------------------------------------------+
|        File Writing Summary       |              Filename             |
+-----------------------------------------------------------------------+
|SU2 binary restart                 |restart_flow_aoa14.dat             |
|Paraview                           |flow_aoa14.vtu                     |
|Paraview surface                   |surface_flow_aoa14.vtu             |
+-----------------------------------------------------------------------+
+-----------------------------------------------------------------------------+
|  Inner_Iter|     Min CFL|     Max CFL|      rms[P]|  Cauchy[CD]|          CD|
+-----------------------------------------------------------------------------+
|        1210|  8.0674e+01|  8.0674e+01|   -7.223329|  1.3449e-04|    0.102834|
|        1220|  8.0674e+01|  8.0674e+01|   -7.225294|  1.3615e-04|    0.102741|
|        1230|  8.0674e+01|  8.0674e+01|   -7.234710|  1.3581e-04|    0.102667|
|        1240|  8.0674e+01|  8.0674e+01|   -7.251238|  1.2769e-04|    0.102604|
|        1250|  1.1617e+01|  1.1617e+01|   -7.274893|  1.2228e-04|    0.102563|
|        1260|  7.1930e+01|  7.1930e+01|   -7.284348|  1.2003e-04|    0.102543|
|        1270|  3.7114e+01|  3.7114e+01|   -7.297734|  1.1508e-04|    0.102533|
|        1280|  7.6960e+01|  7.6960e+01|   -7.320345|  1.0688e-04|    0.102510|
|        1290|  7.6960e+01|  7.6960e+01|   -7.360630|  9.8469e-05|    0.102490|
|        1300|  7.6960e+01|  7.6960e+01|   -7.407895|  9.1458e-05|    0.102489|
|        1310|  7.6960e+00|  7.6960e+00|   -7.461037|  8.5873e-05|    0.102490|
|        1320|  4.7652e+01|  4.7652e+01|   -7.481508|  8.3060e-05|    0.102486|
|        1330|  2.4587e+01|  2.4587e+01|   -7.506330|  8.0219e-05|    0.102489|
|        1340|  7.3417e+01|  7.3417e+01|   -7.538135|  7.2840e-05|    0.102492|
|        1350|  7.3417e+01|  7.3417e+01|   -7.585581|  6.4487e-05|    0.102497|
|        1360|  8.8100e+01|  8.8100e+01|   -7.616540|  6.1402e-05|    0.102515|
|        1370|  4.5458e+01|  4.5458e+01|   -7.625100|  5.8429e-05|    0.102521|
|        1380|  2.3455e+01|  2.3455e+01|   -7.627118|  5.5664e-05|    0.102529|
|        1390|  1.2102e+01|  1.2102e+01|   -7.622917|  5.3590e-05|    0.102536|
|        1400|  7.4935e+01|  7.4935e+01|   -7.619425|  5.0026e-05|    0.102537|
+-----------------------------------------------------------------------+
|        File Writing Summary       |              Filename             |
+-----------------------------------------------------------------------+
|SU2 binary restart                 |restart_flow_aoa14.dat             |
|Paraview                           |flow_aoa14.vtu                     |
|Paraview surface                   |surface_flow_aoa14.vtu             |
+-----------------------------------------------------------------------+
+-----------------------------------------------------------------------------+
|  Inner_Iter|     Min CFL|     Max CFL|      rms[P]|  Cauchy[CD]|          CD|
+-----------------------------------------------------------------------------+
|        1410|  3.8665e+01|  3.8665e+01|   -7.613064|  4.4934e-05|    0.102542|
|        1420|  8.0175e+01|  8.0175e+01|   -7.591814|  3.8181e-05|    0.102555|
|        1430|  8.0175e+01|  8.0175e+01|   -7.568423|  3.3129e-05|    0.102577|
|        1440|  8.0175e+01|  8.0175e+01|   -7.551375|  2.8594e-05|    0.102597|
|        1450|  8.0175e+01|  8.0175e+01|   -7.544968|  2.3659e-05|    0.102607|
|        1460|  8.0175e+01|  8.0175e+01|   -7.548820|  1.9323e-05|    0.102615|
|        1470|  8.0175e+01|  8.0175e+01|   -7.563238|  1.6224e-05|    0.102628|
|        1480|  8.0175e+01|  8.0175e+01|   -7.588118|  1.3849e-05|    0.102641|
|        1490|  8.0175e+01|  8.0175e+01|   -7.623138|  1.1749e-05|    0.102650|
|        1500|  8.0175e+01|  8.0175e+01|   -7.668522|  1.0449e-05|    0.102659|
|        1510|  8.0175e+01|  8.0175e+01|   -7.723404|  1.0085e-05|    0.102669|
|        1520|  8.0175e+01|  8.0175e+01|   -7.785942|  1.0107e-05|    0.102680|
|        1530|  4.1369e+01|  4.1369e+01|   -7.814882|  9.3299e-06|    0.102679|
|        1540|  2.1345e+01|  2.1345e+01|   -7.845496|  8.8748e-06|    0.102686|
|        1550|  7.6484e+01|  7.6484e+01|   -7.880361|  9.0872e-06|    0.102691|
|        1560|  7.6484e+01|  7.6484e+01|   -7.942781|  9.3750e-06|    0.102699|
|        1570|  1.9032e+01|  1.9032e+01|   -7.978092|  9.5588e-06|    0.102708|
|        1580|  9.8199e+00|  9.8199e+00|   -7.996043|  9.6825e-06|    0.102716|
|        1590|  6.0802e+01|  6.0802e+01|   -8.005712|  9.5762e-06|    0.102721|
|        1600|  7.2963e+01|  7.2963e+01|   -8.015470|  9.9076e-06|    0.102734|
+-----------------------------------------------------------------------+
|        File Writing Summary       |              Filename             |
+-----------------------------------------------------------------------+
|SU2 binary restart                 |restart_flow_aoa14.dat             |
|Paraview                           |flow_aoa14.vtu                     |
|Paraview surface                   |surface_flow_aoa14.vtu             |
+-----------------------------------------------------------------------+
+-----------------------------------------------------------------------------+
|  Inner_Iter|     Min CFL|     Max CFL|      rms[P]|  Cauchy[CD]|          CD|
+-----------------------------------------------------------------------------+
|        1610|  7.2963e+01|  7.2963e+01|   -8.008511|  9.6799e-06|    0.102746|
|        1620|  7.2963e+01|  7.2963e+01|   -7.989657|  1.0155e-05|    0.102765|
|        1630|  7.2963e+01|  7.2963e+01|   -7.967635|  1.0492e-05|    0.102782|
|        1640|  7.2963e+01|  7.2963e+01|   -7.948006|  1.0896e-05|    0.102800|
|        1650|  1.0507e+01|  1.0507e+01|   -7.937406|  1.1318e-05|    0.102815|
|        1660|  6.5054e+01|  6.5054e+01|   -7.936070|  1.1169e-05|    0.102818|
|        1670|  3.3567e+01|  3.3567e+01|   -7.934306|  1.0864e-05|    0.102827|
|        1680|  6.9604e+01|  6.9604e+01|   -7.928810|  1.0709e-05|    0.102845|
|        1690|  6.9604e+01|  6.9604e+01|   -7.934230|  1.0680e-05|    0.102865|
|        1700|  6.9604e+01|  6.9604e+01|   -7.948064|  1.1225e-05|    0.102888|
|        1710|  6.9604e+01|  6.9604e+01|   -7.969980|  1.1794e-05|    0.102911|
|        1720|  6.9604e+01|  6.9604e+01|   -7.998730|  1.2132e-05|    0.102933|
|        1730|  2.9928e+01|  2.9928e+01|   -8.017846|  1.1927e-05|    0.102941|
|        1740|  1.5442e+01|  1.5442e+01|   -8.034979|  1.1984e-05|    0.102951|
|        1750|  6.6399e+01|  6.6399e+01|   -8.053002|  1.2141e-05|    0.102964|
|        1760|  6.6399e+01|  6.6399e+01|   -8.097487|  1.2584e-05|    0.102985|
|        1770|  1.1474e+01|  1.1474e+01|   -8.139056|  1.2816e-05|    0.103002|
|        1780|  7.1043e+01|  7.1043e+01|   -8.158457|  1.3073e-05|    0.103012|
|        1790|  3.6657e+01|  3.6657e+01|   -8.177979|  1.3120e-05|    0.103021|
|        1800|  6.3342e+01|  6.3342e+01|   -8.215376|  1.3640e-05|    0.103042|
+-----------------------------------------------------------------------+
|        File Writing Summary       |              Filename             |
+-----------------------------------------------------------------------+
|SU2 binary restart                 |restart_flow_aoa14.dat             |
|Paraview                           |flow_aoa14.vtu                     |
|Paraview surface                   |surface_flow_aoa14.vtu             |
+-----------------------------------------------------------------------+
+-----------------------------------------------------------------------------+
|  Inner_Iter|     Min CFL|     Max CFL|      rms[P]|  Cauchy[CD]|          CD|
+-----------------------------------------------------------------------------+
|        1810|  6.3342e+01|  6.3342e+01|   -8.260507|  1.4081e-05|    0.103061|
|        1820|  6.3342e+01|  6.3342e+01|   -8.297974|  1.4606e-05|    0.103084|
|        1830|  2.2697e+01|  2.2697e+01|   -8.315076|  1.4660e-05|    0.103093|
|        1840|  1.1711e+01|  1.1711e+01|   -8.325594|  1.4896e-05|    0.103104|
|        1850|  6.0426e+01|  6.0426e+01|   -8.332153|  1.4759e-05|    0.103114|
|        1860|  6.0426e+01|  6.0426e+01|   -8.340593|  1.5053e-05|    0.103133|
|        1870|  6.0426e+01|  6.0426e+01|   -8.344648|  1.5055e-05|    0.103153|
|        1880|  6.0426e+01|  6.0426e+01|   -8.343388|  1.5178e-05|    0.103173|
|        1890|  6.0426e+01|  6.0426e+01|   -8.340063|  1.5247e-05|    0.103193|
|        1900|  6.0426e+01|  6.0426e+01|   -8.338868|  1.5403e-05|    0.103211|
|        1910|  6.0426e+01|  6.0426e+01|   -8.341075|  1.5988e-05|    0.103230|
|        1920|  6.0426e+01|  6.0426e+01|   -8.345248|  1.6340e-05|    0.103248|
|        1930|  6.0426e+01|  6.0426e+01|   -8.352685|  1.6350e-05|    0.103266|
|        1940|  6.0426e+01|  6.0426e+01|   -8.365337|  1.6277e-05|    0.103284|
|        1950|  6.0426e+01|  6.0426e+01|   -8.382569|  1.6041e-05|    0.103302|
|        1960|  6.0426e+00|  6.0426e+00|   -8.403209|  1.5803e-05|    0.103319|
|        1970|  3.7414e+01|  3.7414e+01|   -8.414458|  1.5106e-05|    0.103323|
|        1980|  1.9305e+01|  1.9305e+01|   -8.425289|  1.5090e-05|    0.103330|
|        1990|  5.7644e+01|  5.7644e+01|   -8.439886|  1.5125e-05|    0.103341|
|        2000|  5.7644e+01|  5.7644e+01|   -8.470881|  1.5239e-05|    0.103357|
+-----------------------------------------------------------------------+
|        File Writing Summary       |              Filename             |
+-----------------------------------------------------------------------+
|SU2 binary restart                 |restart_flow_aoa14.dat             |
|Paraview                           |flow_aoa14.vtu                     |
|Paraview surface                   |surface_flow_aoa14.vtu             |
+-----------------------------------------------------------------------+
+-----------------------------------------------------------------------------+
|  Inner_Iter|     Min CFL|     Max CFL|      rms[P]|  Cauchy[CD]|          CD|
+-----------------------------------------------------------------------------+
|        2010|  5.7644e+00|  5.7644e+00|   -8.504997|  1.4992e-05|    0.103372|
|        2020|  3.5692e+01|  3.5692e+01|   -8.519885|  1.4491e-05|    0.103376|
|        2030|  1.8416e+01|  1.8416e+01|   -8.536294|  1.4390e-05|    0.103383|
|        2040|  5.4991e+01|  5.4991e+01|   -8.557876|  1.4465e-05|    0.103394|
|        2050|  5.4991e+01|  5.4991e+01|   -8.596783|  1.4180e-05|    0.103408|
|        2060|  5.4991e+01|  5.4991e+01|   -8.636134|  1.3949e-05|    0.103422|
|        2070|  2.8374e+01|  2.8374e+01|   -8.653890|  1.3259e-05|    0.103426|
|        2080|  1.4640e+01|  1.4640e+01|   -8.671818|  1.3130e-05|    0.103432|
|        2090|  5.2459e+01|  5.2459e+01|   -8.690000|  1.3073e-05|    0.103441|
|        2100|  5.2459e+01|  5.2459e+01|   -8.720162|  1.3202e-05|    0.103454|
|        2110|  5.2459e+01|  5.2459e+01|   -8.742285|  1.2915e-05|    0.103467|
|        2120|  5.2459e+01|  5.2459e+01|   -8.755582|  1.2685e-05|    0.103480|
|        2130|  5.2459e+01|  5.2459e+01|   -8.760256|  1.2411e-05|    0.103493|
|        2140|  5.2459e+01|  5.2459e+01|   -8.756815|  1.2129e-05|    0.103506|
|        2150|  1.0878e+01|  1.0878e+01|   -8.752951|  1.1708e-05|    0.103514|
|        2160|  5.6128e+00|  5.6128e+00|   -8.747830|  1.1234e-05|    0.103520|
|        2170|  3.4753e+01|  3.4753e+01|   -8.746074|  1.0674e-05|    0.103524|
|        2180|  5.0044e+01|  5.0044e+01|   -8.732755|  1.0433e-05|    0.103536|
|        2190|  5.0044e+01|  5.0044e+01|   -8.724046|  1.0177e-05|    0.103547|
|        2200|  5.0044e+01|  5.0044e+01|   -8.716992|  9.9378e-06|    0.103559|
+-----------------------------------------------------------------------+
|        File Writing Summary       |              Filename             |
+-----------------------------------------------------------------------+
|SU2 binary restart                 |restart_flow_aoa14.dat             |
|Paraview                           |flow_aoa14.vtu                     |
|Paraview surface                   |surface_flow_aoa14.vtu             |
+-----------------------------------------------------------------------+
+-----------------------------------------------------------------------------+
|  Inner_Iter|     Min CFL|     Max CFL|      rms[P]|  Cauchy[CD]|          CD|
+-----------------------------------------------------------------------------+
|        2210|  5.0044e+01|  5.0044e+01|   -8.712327|  9.7518e-06|    0.103571|
|        2220|  5.0044e+01|  5.0044e+01|   -8.709376|  1.0080e-05|    0.103583|
|        2230|  5.0044e+01|  5.0044e+01|   -8.709206|  1.0260e-05|    0.103595|
|        2240|  5.0044e+01|  5.0044e+01|   -8.712562|  1.0266e-05|    0.103607|
|        2250|  5.0044e+01|  5.0044e+01|   -8.718729|  1.0127e-05|    0.103619|
|        2260|  1.2453e+01|  1.2453e+01|   -8.726073|  9.7923e-06|    0.103625|
|        2270|  6.4252e+00|  6.4252e+00|   -8.729127|  9.8766e-06|    0.103632|
|        2280|  3.9783e+01|  3.9783e+01|   -8.734824|  9.7545e-06|    0.103635|
|        2290|  4.7740e+01|  4.7740e+01|   -8.741696|  9.7583e-06|    0.103647|
|        2300|  4.7740e+01|  4.7740e+01|   -8.754852|  9.6525e-06|    0.103658|
|        2310|  4.7740e+01|  4.7740e+01|   -8.769137|  9.5707e-06|    0.103669|
|        2320|  1.1879e+01|  1.1879e+01|   -8.781073|  9.6613e-06|    0.103676|
|        2330|  6.1294e+00|  6.1294e+00|   -8.788235|  9.6389e-06|    0.103682|
|        2340|  3.7952e+01|  3.7952e+01|   -8.795414|  9.4403e-06|    0.103686|
|        2350|  4.5542e+01|  4.5542e+01|   -8.806573|  9.3467e-06|    0.103696|
|        2360|  4.5542e+01|  4.5542e+01|   -8.822288|  9.2781e-06|    0.103707|
|        2370|  4.5542e+01|  4.5542e+01|   -8.837906|  9.1825e-06|    0.103718|
|        2380|  1.3599e+01|  1.3599e+01|   -8.848873|  8.8839e-06|    0.103724|
|        2390|  7.0167e+00|  7.0167e+00|   -8.856910|  8.6174e-06|    0.103729|
|        2400|  4.3445e+01|  4.3445e+01|   -8.863156|  8.4746e-06|    0.103733|
+-----------------------------------------------------------------------+
|        File Writing Summary       |              Filename             |
+-----------------------------------------------------------------------+
|SU2 binary restart                 |restart_flow_aoa14.dat             |
|Paraview                           |flow_aoa14.vtu                     |
|Paraview surface                   |surface_flow_aoa14.vtu             |
+-----------------------------------------------------------------------+
+-----------------------------------------------------------------------------+
|  Inner_Iter|     Min CFL|     Max CFL|      rms[P]|  Cauchy[CD]|          CD|
+-----------------------------------------------------------------------------+
|        2410|  4.3445e+01|  4.3445e+01|   -8.874055|  8.6259e-06|    0.103744|
|        2420|  4.3445e+01|  4.3445e+01|   -8.887212|  8.8867e-06|    0.103754|
|        2430|  4.3445e+01|  4.3445e+01|   -8.899503|  8.8410e-06|    0.103765|
|        2440|  4.3445e+01|  4.3445e+01|   -8.910822|  8.7973e-06|    0.103775|
|        2450|  4.3445e+01|  4.3445e+01|   -8.921490|  8.7521e-06|    0.103786|
|        2460|  4.3445e+01|  4.3445e+01|   -8.930596|  8.6835e-06|    0.103796|
|        2470|  4.3445e+01|  4.3445e+01|   -8.938721|  8.6061e-06|    0.103806|
|        2480|  4.3445e+01|  4.3445e+01|   -8.946358|  8.5462e-06|    0.103817|
|        2490|  4.3445e+01|  4.3445e+01|   -8.953155|  8.4970e-06|    0.103827|
|        2500|  7.5074e+00|  7.5074e+00|   -8.959606|  8.3376e-06|    0.103835|
|        2510|  4.6484e+01|  4.6484e+01|   -8.962597|  8.2526e-06|    0.103839|
|        2520|  2.3985e+01|  2.3985e+01|   -8.964980|  8.1496e-06|    0.103843|
|        2530|  4.1445e+01|  4.1445e+01|   -8.965410|  8.3360e-06|    0.103852|
|        2540|  4.1445e+01|  4.1445e+01|   -8.970042|  8.2812e-06|    0.103861|
|        2550|  4.1445e+01|  4.1445e+01|   -8.975392|  8.2216e-06|    0.103871|
|        2560|  4.1445e+01|  4.1445e+01|   -8.980922|  8.1614e-06|    0.103881|
|        2570|  4.1445e+01|  4.1445e+01|   -8.986351|  8.2842e-06|    0.103891|
|        2580|  4.1445e+01|  4.1445e+01|   -8.992205|  8.4302e-06|    0.103901|
|        2590|  4.1445e+01|  4.1445e+01|   -8.998551|  8.6559e-06|    0.103910|
|        2600|  4.1445e+01|  4.1445e+01|   -9.005823|  8.6136e-06|    0.103920|
+-----------------------------------------------------------------------+
|        File Writing Summary       |              Filename             |
+-----------------------------------------------------------------------+
|SU2 binary restart                 |restart_flow_aoa14.dat             |
|Paraview                           |flow_aoa14.vtu                     |
|Paraview surface                   |surface_flow_aoa14.vtu             |
+-----------------------------------------------------------------------+
+-----------------------------------------------------------------------------+
|  Inner_Iter|     Min CFL|     Max CFL|      rms[P]|  Cauchy[CD]|          CD|
+-----------------------------------------------------------------------------+
|        2610|  4.1445e+01|  4.1445e+01|   -9.014033|  8.5696e-06|    0.103930|
|        2620|  4.1445e+01|  4.1445e+01|   -9.022639|  8.5197e-06|    0.103939|
|        2630|  4.1445e+01|  4.1445e+01|   -9.031490|  8.6722e-06|    0.103949|
|        2640|  4.1445e+01|  4.1445e+01|   -9.040956|  8.8210e-06|    0.103958|
|        2650|  4.1445e+01|  4.1445e+01|   -9.051275|  9.0184e-06|    0.103968|
|        2660|  1.0313e+01|  1.0313e+01|   -9.060832|  8.8259e-06|    0.103973|
|        2670|  5.3212e+00|  5.3212e+00|   -9.065215|  8.6204e-06|    0.103978|
|        2680|  3.2948e+01|  3.2948e+01|   -9.071236|  8.3435e-06|    0.103981|
|        2690|  3.9537e+01|  3.9537e+01|   -9.077700|  8.2732e-06|    0.103990|
|        2700|  3.9537e+01|  3.9537e+01|   -9.087853|  8.2104e-06|    0.103999|
|        2710|  3.9537e+01|  3.9537e+01|   -9.097765|  8.1461e-06|    0.104008|
|        2720|  3.9537e+01|  3.9537e+01|   -9.107668|  8.0858e-06|    0.104016|
|        2730|  3.9537e+01|  3.9537e+01|   -9.117336|  8.0256e-06|    0.104025|
|        2740|  3.9537e+01|  3.9537e+01|   -9.126392|  7.9660e-06|    0.104034|
|        2750|  3.9537e+01|  3.9537e+01|   -9.134219|  8.0118e-06|    0.104043|
|        2760|  3.9537e+01|  3.9537e+01|   -9.140946|  8.1702e-06|    0.104052|
|        2770|  3.9537e+01|  3.9537e+01|   -9.146977|  8.3720e-06|    0.104060|
|        2780|  3.9537e+01|  3.9537e+01|   -9.152306|  8.3649e-06|    0.104069|
|        2790|  3.9537e+01|  3.9537e+01|   -9.156697|  8.3181e-06|    0.104078|
|        2800|  3.9537e+01|  3.9537e+01|   -9.160278|  8.2733e-06|    0.104086|
+-----------------------------------------------------------------------+
|        File Writing Summary       |              Filename             |
+-----------------------------------------------------------------------+
|SU2 binary restart                 |restart_flow_aoa14.dat             |
|Paraview                           |flow_aoa14.vtu                     |
|Paraview surface                   |surface_flow_aoa14.vtu             |
+-----------------------------------------------------------------------+
+-----------------------------------------------------------------------------+
|  Inner_Iter|     Min CFL|     Max CFL|      rms[P]|  Cauchy[CD]|          CD|
+-----------------------------------------------------------------------------+
|        2810|  1.1806e+01|  1.1806e+01|   -9.164641|  8.0598e-06|    0.104091|
|        2820|  6.0915e+00|  6.0915e+00|   -9.166248|  7.8523e-06|    0.104095|
|        2830|  3.7717e+01|  3.7717e+01|   -9.168032|  7.6074e-06|    0.104098|
|        2840|  3.7717e+01|  3.7717e+01|   -9.166929|  7.5437e-06|    0.104106|
|        2850|  3.7717e+01|  3.7717e+01|   -9.168889|  7.4845e-06|    0.104115|
|        2860|  3.7717e+01|  3.7717e+01|   -9.170568|  7.4233e-06|    0.104123|
|        2870|  3.7717e+01|  3.7717e+01|   -9.171590|  7.3649e-06|    0.104131|
|        2880|  3.7717e+01|  3.7717e+01|   -9.172767|  7.3084e-06|    0.104139|
|        2890|  3.7717e+01|  3.7717e+01|   -9.174061|  7.2517e-06|    0.104147|
|        2900|  3.7717e+01|  3.7717e+01|   -9.175054|  7.1950e-06|    0.104155|
|        2910|  3.7717e+01|  3.7717e+01|   -9.176171|  7.2926e-06|    0.104163|
|        2920|  3.7717e+01|  3.7717e+01|   -9.177647|  7.4054e-06|    0.104171|
|        2930|  3.7717e+01|  3.7717e+01|   -9.179463|  7.5873e-06|    0.104179|
|        2940|  3.7717e+01|  3.7717e+01|   -9.181423|  7.5542e-06|    0.104187|
|        2950|  3.7717e+01|  3.7717e+01|   -9.183419|  7.5127e-06|    0.104194|
|        2960|  3.7717e+01|  3.7717e+01|   -9.185563|  7.4757e-06|    0.104202|
|        2970|  3.7717e+01|  3.7717e+01|   -9.187981|  7.4371e-06|    0.104210|
|        2980|  3.7717e+01|  3.7717e+01|   -9.190789|  7.3963e-06|    0.104218|
|        2990|  3.7717e+01|  3.7717e+01|   -9.194022|  7.3535e-06|    0.104226|
|        3000|  3.7717e+01|  3.7717e+01|   -9.197533|  7.3115e-06|    0.104233|
+-----------------------------------------------------------------------+
|        File Writing Summary       |              Filename             |
+-----------------------------------------------------------------------+
|SU2 binary restart                 |restart_flow_aoa14.dat             |
|Paraview                           |flow_aoa14.vtu                     |
|Paraview surface                   |surface_flow_aoa14.vtu             |
+-----------------------------------------------------------------------+
+-----------------------------------------------------------------------------+
|  Inner_Iter|     Min CFL|     Max CFL|      rms[P]|  Cauchy[CD]|          CD|
+-----------------------------------------------------------------------------+
|        3010|  3.7717e+01|  3.7717e+01|   -9.201200|  7.2717e-06|    0.104241|
|        3020|  3.7717e+01|  3.7717e+01|   -9.204998|  7.2326e-06|    0.104249|
|        3030|  3.7717e+01|  3.7717e+01|   -9.208936|  7.1947e-06|    0.104256|
|        3040|  3.7717e+01|  3.7717e+01|   -9.213043|  7.1581e-06|    0.104264|
|        3050|  3.7717e+01|  3.7717e+01|   -9.217379|  7.1211e-06|    0.104272|
|        3060|  3.7717e+01|  3.7717e+01|   -9.221968|  7.2474e-06|    0.104279|
|        3070|  3.7717e+01|  3.7717e+01|   -9.226742|  7.3659e-06|    0.104287|
|        3080|  3.7717e+01|  3.7717e+01|   -9.231584|  7.5225e-06|    0.104294|
|        3090|  3.7717e+01|  3.7717e+01|   -9.236423|  7.5003e-06|    0.104302|
|        3100|  3.7717e+01|  3.7717e+01|   -9.241263|  7.4744e-06|    0.104309|
|        3110|  3.7717e+01|  3.7717e+01|   -9.246139|  7.4508e-06|    0.104317|
|        3120|  3.7717e+01|  3.7717e+01|   -9.251071|  7.4262e-06|    0.104324|
|        3130|  3.7717e+01|  3.7717e+01|   -9.256041|  7.4009e-06|    0.104332|
|        3140|  3.7717e+01|  3.7717e+01|   -9.261009|  7.3741e-06|    0.104339|
|        3150|  3.7717e+01|  3.7717e+01|   -9.265933|  7.3460e-06|    0.104346|
|        3160|  3.7717e+01|  3.7717e+01|   -9.270780|  7.3180e-06|    0.104354|
|        3170|  3.7717e+01|  3.7717e+01|   -9.275537|  7.2910e-06|    0.104361|
|        3180|  3.7717e+01|  3.7717e+01|   -9.280215|  7.2650e-06|    0.104368|
|        3190|  3.7717e+01|  3.7717e+01|   -9.284834|  7.2397e-06|    0.104375|
|        3200|  3.7717e+01|  3.7717e+01|   -9.289415|  7.2138e-06|    0.104382|
+-----------------------------------------------------------------------+
|        File Writing Summary       |              Filename             |
+-----------------------------------------------------------------------+
|SU2 binary restart                 |restart_flow_aoa14.dat             |
|Paraview                           |flow_aoa14.vtu                     |
|Paraview surface                   |surface_flow_aoa14.vtu             |
+-----------------------------------------------------------------------+
+-----------------------------------------------------------------------------+
|  Inner_Iter|     Min CFL|     Max CFL|      rms[P]|  Cauchy[CD]|          CD|
+-----------------------------------------------------------------------------+
|        3210|  3.7717e+01|  3.7717e+01|   -9.293975|  7.1865e-06|    0.104390|
|        3220|  3.7717e+01|  3.7717e+01|   -9.298521|  7.1584e-06|    0.104397|
|        3230|  3.7717e+01|  3.7717e+01|   -9.303050|  7.1300e-06|    0.104404|
|        3240|  3.7717e+01|  3.7717e+01|   -9.307547|  7.1013e-06|    0.104411|
|        3250|  3.7717e+01|  3.7717e+01|   -9.311999|  7.0723e-06|    0.104418|
|        3260|  3.7717e+01|  3.7717e+01|   -9.316399|  7.0435e-06|    0.104425|
|        3270|  3.7717e+01|  3.7717e+01|   -9.320751|  7.0152e-06|    0.104432|
|        3280|  3.7717e+01|  3.7717e+01|   -9.325071|  6.9866e-06|    0.104439|
|        3290|  3.7717e+01|  3.7717e+01|   -9.329375|  6.9569e-06|    0.104446|
|        3300|  3.7717e+01|  3.7717e+01|   -9.333672|  6.9263e-06|    0.104452|
|        3310|  3.7717e+01|  3.7717e+01|   -9.337961|  6.8958e-06|    0.104459|
|        3320|  3.7717e+01|  3.7717e+01|   -9.342234|  6.8654e-06|    0.104466|
|        3330|  3.7717e+01|  3.7717e+01|   -9.346477|  6.8347e-06|    0.104473|
|        3340|  3.7717e+01|  3.7717e+01|   -9.350675|  6.8036e-06|    0.104479|
|        3350|  3.7717e+01|  3.7717e+01|   -9.354821|  6.7723e-06|    0.104486|
|        3360|  3.7717e+01|  3.7717e+01|   -9.358915|  6.7410e-06|    0.104493|
|        3370|  3.7717e+01|  3.7717e+01|   -9.362961|  6.7096e-06|    0.104499|
|        3380|  3.7717e+01|  3.7717e+01|   -9.366963|  6.6780e-06|    0.104506|
|        3390|  3.7717e+01|  3.7717e+01|   -9.370922|  6.6461e-06|    0.104512|
|        3400|  3.7717e+01|  3.7717e+01|   -9.374835|  6.6140e-06|    0.104519|
+-----------------------------------------------------------------------+
|        File Writing Summary       |              Filename             |
+-----------------------------------------------------------------------+
|SU2 binary restart                 |restart_flow_aoa14.dat             |
|Paraview                           |flow_aoa14.vtu                     |
|Paraview surface                   |surface_flow_aoa14.vtu             |
+-----------------------------------------------------------------------+
+-----------------------------------------------------------------------------+
|  Inner_Iter|     Min CFL|     Max CFL|      rms[P]|  Cauchy[CD]|          CD|
+-----------------------------------------------------------------------------+
|        3410|  3.7717e+01|  3.7717e+01|   -9.378696|  6.5819e-06|    0.104525|
|        3420|  3.7717e+01|  3.7717e+01|   -9.382508|  6.5499e-06|    0.104532|
|        3430|  3.7717e+01|  3.7717e+01|   -9.386272|  6.5176e-06|    0.104538|
|        3440|  3.7717e+01|  3.7717e+01|   -9.389990|  6.4852e-06|    0.104545|
|        3450|  3.7717e+01|  3.7717e+01|   -9.393665|  6.4528e-06|    0.104551|
|        3460|  3.7717e+01|  3.7717e+01|   -9.397294|  6.4204e-06|    0.104557|
|        3470|  3.7717e+01|  3.7717e+01|   -9.400877|  6.3879e-06|    0.104564|
|        3480|  3.7717e+01|  3.7717e+01|   -9.404412|  6.3553e-06|    0.104570|
|        3490|  3.7717e+01|  3.7717e+01|   -9.407900|  6.3226e-06|    0.104576|
|        3500|  3.7717e+01|  3.7717e+01|   -9.411345|  6.2900e-06|    0.104582|
|        3510|  3.7717e+01|  3.7717e+01|   -9.414753|  6.2576e-06|    0.104588|
|        3520|  3.7717e+01|  3.7717e+01|   -9.418127|  6.2253e-06|    0.104594|
|        3530|  3.7717e+01|  3.7717e+01|   -9.421468|  6.1930e-06|    0.104601|
|        3540|  3.7717e+01|  3.7717e+01|   -9.424777|  6.1607e-06|    0.104607|
|        3550|  3.7717e+01|  3.7717e+01|   -9.428053|  6.1285e-06|    0.104613|
|        3560|  3.7717e+01|  3.7717e+01|   -9.431300|  6.0964e-06|    0.104619|
|        3570|  3.7717e+01|  3.7717e+01|   -9.434520|  6.0644e-06|    0.104624|
|        3580|  3.7717e+01|  3.7717e+01|   -9.437717|  6.0325e-06|    0.104630|
|        3590|  3.7717e+01|  3.7717e+01|   -9.440893|  6.0008e-06|    0.104636|
|        3600|  3.7717e+01|  3.7717e+01|   -9.444052|  5.9692e-06|    0.104642|
+-----------------------------------------------------------------------+
|        File Writing Summary       |              Filename             |
+-----------------------------------------------------------------------+
|SU2 binary restart                 |restart_flow_aoa14.dat             |
|Paraview                           |flow_aoa14.vtu                     |
|Paraview surface                   |surface_flow_aoa14.vtu             |
+-----------------------------------------------------------------------+
+-----------------------------------------------------------------------------+
|  Inner_Iter|     Min CFL|     Max CFL|      rms[P]|  Cauchy[CD]|          CD|
+-----------------------------------------------------------------------------+
|        3610|  1.3515e+01|  1.3515e+01|   -9.448171|  5.8111e-06|    0.104645|
|        3620|  6.9733e+00|  6.9733e+00|   -9.450128|  5.6709e-06|    0.104648|
|        3630|  4.3177e+01|  4.3177e+01|   -9.451382|  5.5259e-06|    0.104650|
|        3640|  2.2278e+01|  2.2278e+01|   -9.453152|  5.3536e-06|    0.104652|
|        3650|  1.1495e+01|  1.1495e+01|   -9.454390|  5.1965e-06|    0.104655|
|        3660|  5.9312e+00|  5.9312e+00|   -9.455042|  5.0646e-06|    0.104658|
|        3670|  3.6725e+01|  3.6725e+01|   -9.456954|  4.9077e-06|    0.104660|
|        3680|  3.6725e+01|  3.6725e+01|   -9.456824|  4.8728e-06|    0.104666|
|        3690|  3.6725e+01|  3.6725e+01|   -9.459881|  4.8406e-06|    0.104671|
|        3700|  3.6725e+01|  3.6725e+01|   -9.462961|  4.8087e-06|    0.104677|
|        3710|  3.6725e+01|  3.6725e+01|   -9.466190|  4.7779e-06|    0.104682|
|        3720|  3.6725e+01|  3.6725e+01|   -9.469436|  4.7478e-06|    0.104688|
|        3730|  3.6725e+01|  3.6725e+01|   -9.472558|  4.7181e-06|    0.104693|
|        3740|  3.6725e+01|  3.6725e+01|   -9.475421|  4.6884e-06|    0.104699|
|        3750|  3.6725e+01|  3.6725e+01|   -9.478354|  4.6581e-06|    0.104704|
|        3760|  3.6725e+01|  3.6725e+01|   -9.481452|  4.6270e-06|    0.104709|
|        3770|  3.6725e+01|  3.6725e+01|   -9.484561|  4.5952e-06|    0.104715|
|        3780|  3.6725e+01|  3.6725e+01|   -9.487576|  4.5637e-06|    0.104720|
|        3790|  3.6725e+01|  3.6725e+01|   -9.490566|  4.5332e-06|    0.104725|
|        3800|  3.6725e+01|  3.6725e+01|   -9.493635|  4.5040e-06|    0.104730|
+-----------------------------------------------------------------------+
|        File Writing Summary       |              Filename             |
+-----------------------------------------------------------------------+
|SU2 binary restart                 |restart_flow_aoa14.dat             |
|Paraview                           |flow_aoa14.vtu                     |
|Paraview surface                   |surface_flow_aoa14.vtu             |
+-----------------------------------------------------------------------+
+-----------------------------------------------------------------------------+
|  Inner_Iter|     Min CFL|     Max CFL|      rms[P]|  Cauchy[CD]|          CD|
+-----------------------------------------------------------------------------+
|        3810|  3.6725e+01|  3.6725e+01|   -9.496829|  4.4751e-06|    0.104736|
|        3820|  3.6725e+01|  3.6725e+01|   -9.500073|  4.4462e-06|    0.104741|
|        3830|  3.6725e+01|  3.6725e+01|   -9.503274|  4.4172e-06|    0.104746|
|        3840|  3.6725e+01|  3.6725e+01|   -9.506376|  4.3879e-06|    0.104751|
|        3850|  3.6725e+01|  3.6725e+01|   -9.509422|  4.3585e-06|    0.104756|
|        3860|  3.6725e+01|  3.6725e+01|   -9.512488|  4.4558e-06|    0.104761|
|        3870|  3.6725e+01|  3.6725e+01|   -9.515592|  4.5360e-06|    0.104766|
|        3880|  3.6725e+01|  3.6725e+01|   -9.518727|  4.6216e-06|    0.104771|
|        3890|  3.6725e+01|  3.6725e+01|   -9.521912|  4.7350e-06|    0.104776|
|        3900|  3.6725e+01|  3.6725e+01|   -9.525151|  4.8333e-06|    0.104781|
|        3910|  3.6725e+01|  3.6725e+01|   -9.528390|  4.9062e-06|    0.104786|
|        3920|  3.6725e+01|  3.6725e+01|   -9.531543|  5.0043e-06|    0.104791|
|        3930|  3.6725e+01|  3.6725e+01|   -9.534582|  4.9807e-06|    0.104796|
|        3940|  3.6725e+01|  3.6725e+01|   -9.537568|  4.9548e-06|    0.104801|
|        3950|  3.6725e+01|  3.6725e+01|   -9.540605|  4.9287e-06|    0.104806|
|        3960|  3.6725e+01|  3.6725e+01|   -9.543763|  4.9020e-06|    0.104811|
|        3970|  3.6725e+01|  3.6725e+01|   -9.547035|  4.8748e-06|    0.104815|
|        3980|  3.6725e+01|  3.6725e+01|   -9.550356|  4.8477e-06|    0.104820|
|        3990|  3.6725e+01|  3.6725e+01|   -9.553642|  4.8207e-06|    0.104825|
|        4000|  3.6725e+01|  3.6725e+01|   -9.556834|  4.7945e-06|    0.104830|
+-----------------------------------------------------------------------+
|        File Writing Summary       |              Filename             |
+-----------------------------------------------------------------------+
|SU2 binary restart                 |restart_flow_aoa14.dat             |
|Paraview                           |flow_aoa14.vtu                     |
|Paraview surface                   |surface_flow_aoa14.vtu             |
+-----------------------------------------------------------------------+
+-----------------------------------------------------------------------------+
|  Inner_Iter|     Min CFL|     Max CFL|      rms[P]|  Cauchy[CD]|          CD|
+-----------------------------------------------------------------------------+
|        4010|  3.6725e+01|  3.6725e+01|   -9.559928|  4.7693e-06|    0.104834|
|        4020|  3.6725e+01|  3.6725e+01|   -9.562960|  4.7450e-06|    0.104839|
|        4030|  3.6725e+01|  3.6725e+01|   -9.565989|  4.7208e-06|    0.104844|
|        4040|  3.6725e+01|  3.6725e+01|   -9.569056|  4.6957e-06|    0.104848|
|        4050|  3.6725e+01|  3.6725e+01|   -9.572181|  4.6698e-06|    0.104853|
|        4060|  3.6725e+01|  3.6725e+01|   -9.575356|  4.6437e-06|    0.104857|
|        4070|  3.6725e+01|  3.6725e+01|   -9.578558|  4.6180e-06|    0.104862|
|        4080|  3.6725e+01|  3.6725e+01|   -9.581758|  4.5928e-06|    0.104866|
|        4090|  3.6725e+01|  3.6725e+01|   -9.584934|  4.5681e-06|    0.104871|
|        4100|  3.6725e+01|  3.6725e+01|   -9.588072|  4.5437e-06|    0.104875|
|        4110|  3.6725e+01|  3.6725e+01|   -9.591172|  4.5195e-06|    0.104880|
|        4120|  3.6725e+01|  3.6725e+01|   -9.594242|  4.4951e-06|    0.104884|
|        4130|  3.6725e+01|  3.6725e+01|   -9.597302|  4.4702e-06|    0.104889|
|        4140|  3.6725e+01|  3.6725e+01|   -9.600368|  4.4453e-06|    0.104893|
|        4150|  3.6725e+01|  3.6725e+01|   -9.603446|  4.4207e-06|    0.104897|
|        4160|  3.6725e+01|  3.6725e+01|   -9.606532|  4.3965e-06|    0.104902|
|        4170|  3.6725e+01|  3.6725e+01|   -9.609616|  4.3725e-06|    0.104906|
|        4180|  3.6725e+01|  3.6725e+01|   -9.612685|  4.3487e-06|    0.104910|
|        4190|  3.6725e+01|  3.6725e+01|   -9.615731|  4.3248e-06|    0.104914|
|        4200|  3.6725e+01|  3.6725e+01|   -9.618753|  4.3011e-06|    0.104919|
+-----------------------------------------------------------------------+
|        File Writing Summary       |              Filename             |
+-----------------------------------------------------------------------+
|SU2 binary restart                 |restart_flow_aoa14.dat             |
|Paraview                           |flow_aoa14.vtu                     |
|Paraview surface                   |surface_flow_aoa14.vtu             |
+-----------------------------------------------------------------------+
+-----------------------------------------------------------------------------+
|  Inner_Iter|     Min CFL|     Max CFL|      rms[P]|  Cauchy[CD]|          CD|
+-----------------------------------------------------------------------------+
|        4210|  3.6725e+01|  3.6725e+01|   -9.621755|  4.2773e-06|    0.104923|
|        4220|  3.6725e+01|  3.6725e+01|   -9.624743|  4.2536e-06|    0.104927|
|        4230|  3.6725e+01|  3.6725e+01|   -9.627720|  4.2299e-06|    0.104931|
|        4240|  3.6725e+01|  3.6725e+01|   -9.630682|  4.2064e-06|    0.104935|
|        4250|  3.6725e+01|  3.6725e+01|   -9.633627|  4.1830e-06|    0.104939|
|        4260|  3.6725e+01|  3.6725e+01|   -9.636551|  4.1598e-06|    0.104943|
|        4270|  3.6725e+01|  3.6725e+01|   -9.639458|  4.1367e-06|    0.104947|
|        4280|  3.6725e+01|  3.6725e+01|   -9.642353|  4.1137e-06|    0.104951|
|        4290|  3.6725e+01|  3.6725e+01|   -9.645240|  4.0908e-06|    0.104955|
|        4300|  3.6725e+01|  3.6725e+01|   -9.648121|  4.0679e-06|    0.104959|
|        4310|  3.6725e+01|  3.6725e+01|   -9.650992|  4.0451e-06|    0.104963|
|        4320|  3.6725e+01|  3.6725e+01|   -9.653849|  4.0224e-06|    0.104967|
|        4330|  3.6725e+01|  3.6725e+01|   -9.656691|  3.9997e-06|    0.104971|
|        4340|  3.6725e+01|  3.6725e+01|   -9.659518|  3.9772e-06|    0.104975|
|        4350|  3.6725e+01|  3.6725e+01|   -9.662333|  3.9547e-06|    0.104979|
|        4360|  3.6725e+01|  3.6725e+01|   -9.665142|  3.9325e-06|    0.104983|
|        4370|  3.6725e+01|  3.6725e+01|   -9.667948|  3.9103e-06|    0.104987|
|        4380|  3.6725e+01|  3.6725e+01|   -9.670752|  3.8882e-06|    0.104991|
|        4390|  3.6725e+01|  3.6725e+01|   -9.673552|  3.8662e-06|    0.104994|
|        4400|  3.6725e+01|  3.6725e+01|   -9.676348|  3.8443e-06|    0.104998|
+-----------------------------------------------------------------------+
|        File Writing Summary       |              Filename             |
+-----------------------------------------------------------------------+
|SU2 binary restart                 |restart_flow_aoa14.dat             |
|Paraview                           |flow_aoa14.vtu                     |
|Paraview surface                   |surface_flow_aoa14.vtu             |
+-----------------------------------------------------------------------+
+-----------------------------------------------------------------------------+
|  Inner_Iter|     Min CFL|     Max CFL|      rms[P]|  Cauchy[CD]|          CD|
+-----------------------------------------------------------------------------+
|        4410|  3.6725e+01|  3.6725e+01|   -9.679138|  3.8224e-06|    0.105002|
|        4420|  3.6725e+01|  3.6725e+01|   -9.681925|  3.8007e-06|    0.105006|
|        4430|  3.6725e+01|  3.6725e+01|   -9.684709|  3.7791e-06|    0.105009|
|        4440|  3.6725e+01|  3.6725e+01|   -9.687492|  3.7576e-06|    0.105013|
|        4450|  3.6725e+01|  3.6725e+01|   -9.690273|  3.7362e-06|    0.105017|
|        4460|  3.6725e+01|  3.6725e+01|   -9.693055|  3.7149e-06|    0.105020|
|        4470|  3.6725e+01|  3.6725e+01|   -9.695835|  3.6937e-06|    0.105024|
|        4480|  3.6725e+01|  3.6725e+01|   -9.698616|  3.6727e-06|    0.105027|
|        4490|  3.6725e+01|  3.6725e+01|   -9.701396|  3.6517e-06|    0.105031|
|        4500|  3.6725e+01|  3.6725e+01|   -9.704175|  3.6309e-06|    0.105035|
|        4510|  3.6725e+01|  3.6725e+01|   -9.706955|  3.6103e-06|    0.105038|
|        4520|  3.6725e+01|  3.6725e+01|   -9.709733|  3.5897e-06|    0.105042|
|        4530|  3.6725e+01|  3.6725e+01|   -9.712511|  3.5693e-06|    0.105045|
|        4540|  3.6725e+01|  3.6725e+01|   -9.715288|  3.5490e-06|    0.105049|
|        4550|  3.6725e+01|  3.6725e+01|   -9.718064|  3.5288e-06|    0.105052|
|        4560|  3.6725e+01|  3.6725e+01|   -9.720842|  3.5087e-06|    0.105056|
|        4570|  3.6725e+01|  3.6725e+01|   -9.723621|  3.4887e-06|    0.105059|
|        4580|  3.6725e+01|  3.6725e+01|   -9.726401|  3.4689e-06|    0.105062|
|        4590|  3.6725e+01|  3.6725e+01|   -9.729182|  3.4491e-06|    0.105066|
|        4600|  3.6725e+01|  3.6725e+01|   -9.731964|  3.4295e-06|    0.105069|
+-----------------------------------------------------------------------+
|        File Writing Summary       |              Filename             |
+-----------------------------------------------------------------------+
|SU2 binary restart                 |restart_flow_aoa14.dat             |
|Paraview                           |flow_aoa14.vtu                     |
|Paraview surface                   |surface_flow_aoa14.vtu             |
+-----------------------------------------------------------------------+
+-----------------------------------------------------------------------------+
|  Inner_Iter|     Min CFL|     Max CFL|      rms[P]|  Cauchy[CD]|          CD|
+-----------------------------------------------------------------------------+
|        4610|  3.6725e+01|  3.6725e+01|   -9.734745|  3.4100e-06|    0.105072|
|        4620|  3.6725e+01|  3.6725e+01|   -9.737524|  3.3906e-06|    0.105076|
|        4630|  3.6725e+01|  3.6725e+01|   -9.740303|  3.3713e-06|    0.105079|
|        4640|  3.6725e+01|  3.6725e+01|   -9.743081|  3.3521e-06|    0.105082|
|        4650|  3.6725e+01|  3.6725e+01|   -9.745858|  3.3331e-06|    0.105086|
|        4660|  3.6725e+01|  3.6725e+01|   -9.748634|  3.3142e-06|    0.105089|
|        4670|  3.6725e+01|  3.6725e+01|   -9.751409|  3.2954e-06|    0.105092|
|        4680|  3.6725e+01|  3.6725e+01|   -9.754182|  3.2767e-06|    0.105095|
|        4690|  3.6725e+01|  3.6725e+01|   -9.756953|  3.2581e-06|    0.105099|
|        4700|  3.6725e+01|  3.6725e+01|   -9.759722|  3.2396e-06|    0.105102|
|        4710|  3.6725e+01|  3.6725e+01|   -9.762488|  3.2213e-06|    0.105105|
|        4720|  3.6725e+01|  3.6725e+01|   -9.765252|  3.2030e-06|    0.105108|
|        4730|  3.6725e+01|  3.6725e+01|   -9.768015|  3.1848e-06|    0.105111|
|        4740|  3.6725e+01|  3.6725e+01|   -9.770776|  3.1667e-06|    0.105114|
|        4750|  3.6725e+01|  3.6725e+01|   -9.773536|  3.1488e-06|    0.105117|
|        4760|  3.6725e+01|  3.6725e+01|   -9.776292|  3.1309e-06|    0.105120|
|        4770|  3.6725e+01|  3.6725e+01|   -9.779045|  3.1131e-06|    0.105123|
|        4780|  3.6725e+01|  3.6725e+01|   -9.781792|  3.0955e-06|    0.105126|
|        4790|  3.6725e+01|  3.6725e+01|   -9.784534|  3.0779e-06|    0.105129|
|        4800|  3.6725e+01|  3.6725e+01|   -9.787270|  3.0604e-06|    0.105132|
+-----------------------------------------------------------------------+
|        File Writing Summary       |              Filename             |
+-----------------------------------------------------------------------+
|SU2 binary restart                 |restart_flow_aoa14.dat             |
|Paraview                           |flow_aoa14.vtu                     |
|Paraview surface                   |surface_flow_aoa14.vtu             |
+-----------------------------------------------------------------------+
+-----------------------------------------------------------------------------+
|  Inner_Iter|     Min CFL|     Max CFL|      rms[P]|  Cauchy[CD]|          CD|
+-----------------------------------------------------------------------------+
|        4810|  3.6725e+01|  3.6725e+01|   -9.790000|  3.0430e-06|    0.105135|
|        4820|  3.6725e+01|  3.6725e+01|   -9.792725|  3.0258e-06|    0.105138|
|        4830|  3.6725e+01|  3.6725e+01|   -9.795448|  3.0086e-06|    0.105141|
|        4840|  3.6725e+01|  3.6725e+01|   -9.798169|  2.9915e-06|    0.105144|
|        4850|  3.6725e+01|  3.6725e+01|   -9.800888|  2.9745e-06|    0.105147|
|        4860|  3.6725e+01|  3.6725e+01|   -9.803603|  2.9576e-06|    0.105150|
|        4870|  3.6725e+01|  3.6725e+01|   -9.806313|  2.9408e-06|    0.105153|
|        4880|  3.6725e+01|  3.6725e+01|   -9.809019|  2.9241e-06|    0.105156|
|        4890|  3.6725e+01|  3.6725e+01|   -9.811721|  2.9074e-06|    0.105159|
|        4900|  3.6725e+01|  3.6725e+01|   -9.814419|  2.8909e-06|    0.105162|
|        4910|  3.6725e+01|  3.6725e+01|   -9.817114|  2.8745e-06|    0.105164|
|        4920|  3.6725e+01|  3.6725e+01|   -9.819805|  2.8581e-06|    0.105167|
|        4930|  3.6725e+01|  3.6725e+01|   -9.822493|  2.8419e-06|    0.105170|
|        4940|  3.6725e+01|  3.6725e+01|   -9.825179|  2.8258e-06|    0.105173|
|        4950|  3.6725e+01|  3.6725e+01|   -9.827863|  2.8097e-06|    0.105176|
|        4960|  3.6725e+01|  3.6725e+01|   -9.830545|  2.7938e-06|    0.105178|
|        4970|  3.6725e+01|  3.6725e+01|   -9.833224|  2.7780e-06|    0.105181|
|        4980|  3.6725e+01|  3.6725e+01|   -9.835901|  2.7622e-06|    0.105184|
|        4990|  3.6725e+01|  3.6725e+01|   -9.838576|  2.7466e-06|    0.105186|
|        5000|  3.6725e+01|  3.6725e+01|   -9.841251|  2.7310e-06|    0.105189|
+-----------------------------------------------------------------------+
|        File Writing Summary       |              Filename             |
+-----------------------------------------------------------------------+
|SU2 binary restart                 |restart_flow_aoa14.dat             |
|Paraview                           |flow_aoa14.vtu                     |
|Paraview surface                   |surface_flow_aoa14.vtu             |
+-----------------------------------------------------------------------+
+-----------------------------------------------------------------------------+
|  Inner_Iter|     Min CFL|     Max CFL|      rms[P]|  Cauchy[CD]|          CD|
+-----------------------------------------------------------------------------+
|        5010|  3.6725e+01|  3.6725e+01|   -9.843925|  2.7155e-06|    0.105192|
|        5020|  3.6725e+01|  3.6725e+01|   -9.846598|  2.7002e-06|    0.105194|
|        5030|  3.6725e+01|  3.6725e+01|   -9.849271|  2.6849e-06|    0.105197|
|        5040|  3.6725e+01|  3.6725e+01|   -9.851942|  2.6697e-06|    0.105200|
|        5050|  3.6725e+01|  3.6725e+01|   -9.854613|  2.6546e-06|    0.105202|
|        5060|  3.6725e+01|  3.6725e+01|   -9.857283|  2.6396e-06|    0.105205|
|        5070|  3.6725e+01|  3.6725e+01|   -9.859953|  2.6247e-06|    0.105207|
|        5080|  3.6725e+01|  3.6725e+01|   -9.862622|  2.6099e-06|    0.105210|
|        5090|  3.6725e+01|  3.6725e+01|   -9.865291|  2.5951e-06|    0.105213|
|        5100|  3.6725e+01|  3.6725e+01|   -9.867961|  2.5804e-06|    0.105215|
|        5110|  3.6725e+01|  3.6725e+01|   -9.870629|  2.5659e-06|    0.105218|
|        5120|  3.6725e+01|  3.6725e+01|   -9.873298|  2.5514e-06|    0.105220|
|        5130|  3.6725e+01|  3.6725e+01|   -9.875965|  2.5370e-06|    0.105223|
|        5140|  3.6725e+01|  3.6725e+01|   -9.878631|  2.5226e-06|    0.105225|
|        5150|  3.6725e+01|  3.6725e+01|   -9.881295|  2.5084e-06|    0.105228|
|        5160|  3.6725e+01|  3.6725e+01|   -9.883959|  2.4942e-06|    0.105230|
|        5170|  3.6725e+01|  3.6725e+01|   -9.886624|  2.4801e-06|    0.105232|
|        5180|  3.6725e+01|  3.6725e+01|   -9.889288|  2.4661e-06|    0.105235|
|        5190|  3.6725e+01|  3.6725e+01|   -9.891953|  2.4522e-06|    0.105237|
|        5200|  3.6725e+01|  3.6725e+01|   -9.894618|  2.4383e-06|    0.105240|
+-----------------------------------------------------------------------+
|        File Writing Summary       |              Filename             |
+-----------------------------------------------------------------------+
|SU2 binary restart                 |restart_flow_aoa14.dat             |
|Paraview                           |flow_aoa14.vtu                     |
|Paraview surface                   |surface_flow_aoa14.vtu             |
+-----------------------------------------------------------------------+
+-----------------------------------------------------------------------------+
|  Inner_Iter|     Min CFL|     Max CFL|      rms[P]|  Cauchy[CD]|          CD|
+-----------------------------------------------------------------------------+
|        5210|  3.6725e+01|  3.6725e+01|   -9.897284|  2.4245e-06|    0.105242|
|        5220|  3.6725e+01|  3.6725e+01|   -9.899948|  2.4108e-06|    0.105244|
|        5230|  3.6725e+01|  3.6725e+01|   -9.902611|  2.3971e-06|    0.105247|
|        5240|  3.6725e+01|  3.6725e+01|   -9.905273|  2.3836e-06|    0.105249|
|        5250|  3.6725e+01|  3.6725e+01|   -9.907933|  2.3701e-06|    0.105251|
|        5260|  3.6725e+01|  3.6725e+01|   -9.910591|  2.3566e-06|    0.105254|
|        5270|  3.6725e+01|  3.6725e+01|   -9.913248|  2.3433e-06|    0.105256|
|        5280|  3.6725e+01|  3.6725e+01|   -9.915904|  2.3300e-06|    0.105258|
|        5290|  3.6725e+01|  3.6725e+01|   -9.918560|  2.3168e-06|    0.105261|
|        5300|  3.6725e+01|  3.6725e+01|   -9.921215|  2.3036e-06|    0.105263|
|        5310|  3.6725e+01|  3.6725e+01|   -9.923868|  2.2905e-06|    0.105265|
|        5320|  3.6725e+01|  3.6725e+01|   -9.926521|  2.2775e-06|    0.105267|
|        5330|  3.6725e+01|  3.6725e+01|   -9.929173|  2.2645e-06|    0.105270|
|        5340|  3.6725e+01|  3.6725e+01|   -9.931822|  2.2516e-06|    0.105272|
|        5350|  3.6725e+01|  3.6725e+01|   -9.934470|  2.2388e-06|    0.105274|
|        5360|  3.6725e+01|  3.6725e+01|   -9.937116|  2.2260e-06|    0.105276|
|        5370|  3.6725e+01|  3.6725e+01|   -9.939760|  2.2133e-06|    0.105278|
|        5380|  3.6725e+01|  3.6725e+01|   -9.942401|  2.2006e-06|    0.105281|
|        5390|  3.6725e+01|  3.6725e+01|   -9.945041|  2.1880e-06|    0.105283|
|        5400|  3.6725e+01|  3.6725e+01|   -9.947679|  2.1755e-06|    0.105285|
+-----------------------------------------------------------------------+
|        File Writing Summary       |              Filename             |
+-----------------------------------------------------------------------+
|SU2 binary restart                 |restart_flow_aoa14.dat             |
|Paraview                           |flow_aoa14.vtu                     |
|Paraview surface                   |surface_flow_aoa14.vtu             |
+-----------------------------------------------------------------------+
+-----------------------------------------------------------------------------+
|  Inner_Iter|     Min CFL|     Max CFL|      rms[P]|  Cauchy[CD]|          CD|
+-----------------------------------------------------------------------------+
|        5410|  3.6725e+01|  3.6725e+01|   -9.950317|  2.1630e-06|    0.105287|
|        5420|  3.6725e+01|  3.6725e+01|   -9.952953|  2.1506e-06|    0.105289|
|        5430|  3.6725e+01|  3.6725e+01|   -9.955588|  2.1383e-06|    0.105291|
|        5440|  3.6725e+01|  3.6725e+01|   -9.958221|  2.1260e-06|    0.105293|
|        5450|  3.6725e+01|  3.6725e+01|   -9.960852|  2.1138e-06|    0.105295|
|        5460|  3.6725e+01|  3.6725e+01|   -9.963480|  2.1016e-06|    0.105297|
|        5470|  3.6725e+01|  3.6725e+01|   -9.966106|  2.0896e-06|    0.105299|
|        5480|  3.6725e+01|  3.6725e+01|   -9.968730|  2.0775e-06|    0.105301|
|        5490|  3.6725e+01|  3.6725e+01|   -9.971351|  2.0656e-06|    0.105303|
|        5500|  3.6725e+01|  3.6725e+01|   -9.973971|  2.0537e-06|    0.105305|
|        5510|  3.6725e+01|  3.6725e+01|   -9.976590|  2.0419e-06|    0.105308|
|        5520|  3.6725e+01|  3.6725e+01|   -9.979207|  2.0301e-06|    0.105309|
|        5530|  3.6725e+01|  3.6725e+01|   -9.981822|  2.0184e-06|    0.105311|
|        5540|  3.6725e+01|  3.6725e+01|   -9.984437|  2.0068e-06|    0.105313|
|        5550|  3.6725e+01|  3.6725e+01|   -9.987050|  1.9952e-06|    0.105315|
|        5560|  3.6725e+01|  3.6725e+01|   -9.989662|  1.9837e-06|    0.105317|
|        5570|  3.6725e+01|  3.6725e+01|   -9.992272|  1.9723e-06|    0.105319|
|        5580|  3.6725e+01|  3.6725e+01|   -9.994880|  1.9610e-06|    0.105321|
|        5590|  3.6725e+01|  3.6725e+01|   -9.997486|  1.9497e-06|    0.105323|
|        5600|  3.6725e+01|  3.6725e+01|  -10.000089|  1.9385e-06|    0.105325|
+-----------------------------------------------------------------------+
|        File Writing Summary       |              Filename             |
+-----------------------------------------------------------------------+
|SU2 binary restart                 |restart_flow_aoa14.dat             |
|Paraview                           |flow_aoa14.vtu                     |
|Paraview surface                   |surface_flow_aoa14.vtu             |
+-----------------------------------------------------------------------+
+-----------------------------------------------------------------------------+
|  Inner_Iter|     Min CFL|     Max CFL|      rms[P]|  Cauchy[CD]|          CD|
+-----------------------------------------------------------------------------+
|        5610|  3.6725e+01|  3.6725e+01|  -10.002690|  1.9273e-06|    0.105327|
|        5620|  3.6725e+01|  3.6725e+01|  -10.005289|  1.9162e-06|    0.105329|
|        5630|  3.6725e+01|  3.6725e+01|  -10.007886|  1.9052e-06|    0.105331|
|        5640|  3.6725e+01|  3.6725e+01|  -10.010482|  1.8942e-06|    0.105333|
|        5650|  3.6725e+01|  3.6725e+01|  -10.013076|  1.8833e-06|    0.105334|
|        5660|  3.6725e+01|  3.6725e+01|  -10.015668|  1.8725e-06|    0.105336|
|        5670|  3.6725e+01|  3.6725e+01|  -10.018259|  1.8618e-06|    0.105338|
|        5680|  3.6725e+01|  3.6725e+01|  -10.020848|  1.8510e-06|    0.105340|
|        5690|  3.6725e+01|  3.6725e+01|  -10.023436|  1.8404e-06|    0.105342|
|        5700|  3.6725e+01|  3.6725e+01|  -10.026021|  1.8298e-06|    0.105343|
|        5710|  3.6725e+01|  3.6725e+01|  -10.028605|  1.8193e-06|    0.105345|
|        5720|  3.6725e+01|  3.6725e+01|  -10.031186|  1.8088e-06|    0.105347|
|        5730|  3.6725e+01|  3.6725e+01|  -10.033765|  1.7984e-06|    0.105349|
|        5740|  3.6725e+01|  3.6725e+01|  -10.036342|  1.7881e-06|    0.105351|
|        5750|  3.6725e+01|  3.6725e+01|  -10.038916|  1.7778e-06|    0.105352|
|        5760|  3.6725e+01|  3.6725e+01|  -10.041489|  1.7676e-06|    0.105354|
|        5770|  3.6725e+01|  3.6725e+01|  -10.044061|  1.7575e-06|    0.105356|
|        5780|  3.6725e+01|  3.6725e+01|  -10.046630|  1.7474e-06|    0.105357|
|        5790|  3.6725e+01|  3.6725e+01|  -10.049199|  1.7373e-06|    0.105359|
|        5800|  3.6725e+01|  3.6725e+01|  -10.051766|  1.7274e-06|    0.105361|
+-----------------------------------------------------------------------+
|        File Writing Summary       |              Filename             |
+-----------------------------------------------------------------------+
|SU2 binary restart                 |restart_flow_aoa14.dat             |
|Paraview                           |flow_aoa14.vtu                     |
|Paraview surface                   |surface_flow_aoa14.vtu             |
+-----------------------------------------------------------------------+
+-----------------------------------------------------------------------------+
|  Inner_Iter|     Min CFL|     Max CFL|      rms[P]|  Cauchy[CD]|          CD|
+-----------------------------------------------------------------------------+
|        5810|  3.6725e+01|  3.6725e+01|  -10.054331|  1.7174e-06|    0.105363|
|        5820|  3.6725e+01|  3.6725e+01|  -10.056895|  1.7076e-06|    0.105364|
|        5830|  3.6725e+01|  3.6725e+01|  -10.059458|  1.6978e-06|    0.105366|
|        5840|  3.6725e+01|  3.6725e+01|  -10.062019|  1.6880e-06|    0.105368|
|        5850|  3.6725e+01|  3.6725e+01|  -10.064579|  1.6783e-06|    0.105369|
|        5860|  3.6725e+01|  3.6725e+01|  -10.067137|  1.6687e-06|    0.105371|
|        5870|  3.6725e+01|  3.6725e+01|  -10.069694|  1.6591e-06|    0.105373|
|        5880|  3.6725e+01|  3.6725e+01|  -10.072250|  1.6496e-06|    0.105374|
|        5890|  3.6725e+01|  3.6725e+01|  -10.074805|  1.6401e-06|    0.105376|
|        5900|  3.6725e+01|  3.6725e+01|  -10.077360|  1.6307e-06|    0.105377|
|        5910|  3.6725e+01|  3.6725e+01|  -10.079913|  1.6213e-06|    0.105379|
|        5920|  3.6725e+01|  3.6725e+01|  -10.082466|  1.6120e-06|    0.105381|
|        5930|  3.6725e+01|  3.6725e+01|  -10.085019|  1.6028e-06|    0.105382|
|        5940|  3.6725e+01|  3.6725e+01|  -10.087572|  1.5936e-06|    0.105384|
|        5950|  3.6725e+01|  3.6725e+01|  -10.090124|  1.5844e-06|    0.105385|
|        5960|  3.6725e+01|  3.6725e+01|  -10.092675|  1.5754e-06|    0.105387|
|        5970|  3.6725e+01|  3.6725e+01|  -10.095226|  1.5663e-06|    0.105388|
|        5980|  3.6725e+01|  3.6725e+01|  -10.097777|  1.5574e-06|    0.105390|
|        5990|  3.6725e+01|  3.6725e+01|  -10.100328|  1.5484e-06|    0.105391|
|        6000|  3.6725e+01|  3.6725e+01|  -10.102879|  1.5396e-06|    0.105393|
+-----------------------------------------------------------------------+
|        File Writing Summary       |              Filename             |
+-----------------------------------------------------------------------+
|SU2 binary restart                 |restart_flow_aoa14.dat             |
|Paraview                           |flow_aoa14.vtu                     |
|Paraview surface                   |surface_flow_aoa14.vtu             |
+-----------------------------------------------------------------------+
+-----------------------------------------------------------------------------+
|  Inner_Iter|     Min CFL|     Max CFL|      rms[P]|  Cauchy[CD]|          CD|
+-----------------------------------------------------------------------------+
|        6010|  3.6725e+01|  3.6725e+01|  -10.105430|  1.5308e-06|    0.105394|
|        6020|  3.6725e+01|  3.6725e+01|  -10.107981|  1.5220e-06|    0.105396|
|        6030|  3.6725e+01|  3.6725e+01|  -10.110532|  1.5133e-06|    0.105397|
|        6040|  3.6725e+01|  3.6725e+01|  -10.113083|  1.5046e-06|    0.105399|
|        6050|  3.6725e+01|  3.6725e+01|  -10.115635|  1.4960e-06|    0.105400|
|        6060|  3.6725e+01|  3.6725e+01|  -10.118187|  1.4875e-06|    0.105402|
|        6070|  3.6725e+01|  3.6725e+01|  -10.120739|  1.4790e-06|    0.105403|
|        6080|  3.6725e+01|  3.6725e+01|  -10.123292|  1.4705e-06|    0.105405|
|        6090|  3.6725e+01|  3.6725e+01|  -10.125844|  1.4621e-06|    0.105406|
|        6100|  3.6725e+01|  3.6725e+01|  -10.128397|  1.4538e-06|    0.105408|
|        6110|  3.6725e+01|  3.6725e+01|  -10.130950|  1.4454e-06|    0.105409|
|        6120|  3.6725e+01|  3.6725e+01|  -10.133503|  1.4372e-06|    0.105410|
|        6130|  3.6725e+01|  3.6725e+01|  -10.136056|  1.4290e-06|    0.105412|
|        6140|  3.6725e+01|  3.6725e+01|  -10.138610|  1.4208e-06|    0.105413|
|        6150|  3.6725e+01|  3.6725e+01|  -10.141164|  1.4127e-06|    0.105415|
|        6160|  3.6725e+01|  3.6725e+01|  -10.143717|  1.4046e-06|    0.105416|
|        6170|  3.6725e+01|  3.6725e+01|  -10.146271|  1.3966e-06|    0.105417|
|        6180|  3.6725e+01|  3.6725e+01|  -10.148825|  1.3886e-06|    0.105419|
|        6190|  3.6725e+01|  3.6725e+01|  -10.151378|  1.3807e-06|    0.105420|
|        6200|  3.6725e+01|  3.6725e+01|  -10.153932|  1.3728e-06|    0.105421|
+-----------------------------------------------------------------------+
|        File Writing Summary       |              Filename             |
+-----------------------------------------------------------------------+
|SU2 binary restart                 |restart_flow_aoa14.dat             |
|Paraview                           |flow_aoa14.vtu                     |
|Paraview surface                   |surface_flow_aoa14.vtu             |
+-----------------------------------------------------------------------+
+-----------------------------------------------------------------------------+
|  Inner_Iter|     Min CFL|     Max CFL|      rms[P]|  Cauchy[CD]|          CD|
+-----------------------------------------------------------------------------+
|        6210|  3.6725e+01|  3.6725e+01|  -10.156485|  1.3649e-06|    0.105423|
|        6220|  3.6725e+01|  3.6725e+01|  -10.159038|  1.3571e-06|    0.105424|
|        6230|  3.6725e+01|  3.6725e+01|  -10.161592|  1.3494e-06|    0.105425|
|        6240|  3.6725e+01|  3.6725e+01|  -10.164145|  1.3417e-06|    0.105427|
|        6250|  3.6725e+01|  3.6725e+01|  -10.166698|  1.3340e-06|    0.105428|
|        6260|  3.6725e+01|  3.6725e+01|  -10.169249|  1.3264e-06|    0.105429|
|        6270|  3.6725e+01|  3.6725e+01|  -10.171799|  1.3188e-06|    0.105431|
|        6280|  3.6725e+01|  3.6725e+01|  -10.174348|  1.3113e-06|    0.105432|
|        6290|  3.6725e+01|  3.6725e+01|  -10.176897|  1.3038e-06|    0.105433|
|        6300|  3.6725e+01|  3.6725e+01|  -10.179447|  1.2964e-06|    0.105434|
|        6310|  3.6725e+01|  3.6725e+01|  -10.181998|  1.2890e-06|    0.105436|
|        6320|  3.6725e+01|  3.6725e+01|  -10.184549|  1.2816e-06|    0.105437|
|        6330|  3.6725e+01|  3.6725e+01|  -10.187101|  1.2743e-06|    0.105438|
|        6340|  3.6725e+01|  3.6725e+01|  -10.189653|  1.2670e-06|    0.105440|
|        6350|  3.6725e+01|  3.6725e+01|  -10.192202|  1.2598e-06|    0.105441|
|        6360|  3.6725e+01|  3.6725e+01|  -10.194749|  1.2526e-06|    0.105442|
|        6370|  3.6725e+01|  3.6725e+01|  -10.197294|  1.2454e-06|    0.105443|
|        6380|  3.6725e+01|  3.6725e+01|  -10.199837|  1.2383e-06|    0.105444|
|        6390|  3.6725e+01|  3.6725e+01|  -10.202380|  1.2312e-06|    0.105446|
|        6400|  3.6725e+01|  3.6725e+01|  -10.204923|  1.2242e-06|    0.105447|
+-----------------------------------------------------------------------+
|        File Writing Summary       |              Filename             |
+-----------------------------------------------------------------------+
|SU2 binary restart                 |restart_flow_aoa14.dat             |
|Paraview                           |flow_aoa14.vtu                     |
|Paraview surface                   |surface_flow_aoa14.vtu             |
+-----------------------------------------------------------------------+
+-----------------------------------------------------------------------------+
|  Inner_Iter|     Min CFL|     Max CFL|      rms[P]|  Cauchy[CD]|          CD|
+-----------------------------------------------------------------------------+
|        6410|  3.6725e+01|  3.6725e+01|  -10.207466|  1.2172e-06|    0.105448|
|        6420|  3.6725e+01|  3.6725e+01|  -10.210009|  1.2103e-06|    0.105449|
|        6430|  3.6725e+01|  3.6725e+01|  -10.212552|  1.2033e-06|    0.105450|
|        6440|  3.6725e+01|  3.6725e+01|  -10.215094|  1.1965e-06|    0.105452|
|        6450|  3.6725e+01|  3.6725e+01|  -10.217636|  1.1896e-06|    0.105453|
|        6460|  3.6725e+01|  3.6725e+01|  -10.220176|  1.1828e-06|    0.105454|
|        6470|  3.6725e+01|  3.6725e+01|  -10.222716|  1.1761e-06|    0.105455|
|        6480|  3.6725e+01|  3.6725e+01|  -10.225255|  1.1694e-06|    0.105456|
|        6490|  3.6725e+01|  3.6725e+01|  -10.227793|  1.1627e-06|    0.105457|
|        6500|  3.6725e+01|  3.6725e+01|  -10.230330|  1.1560e-06|    0.105459|
|        6510|  3.6725e+01|  3.6725e+01|  -10.232868|  1.1494e-06|    0.105460|
|        6520|  3.6725e+01|  3.6725e+01|  -10.235404|  1.1429e-06|    0.105461|
|        6530|  3.6725e+01|  3.6725e+01|  -10.237941|  1.1363e-06|    0.105462|
|        6540|  3.6725e+01|  3.6725e+01|  -10.240476|  1.1298e-06|    0.105463|
|        6550|  3.6725e+01|  3.6725e+01|  -10.243011|  1.1234e-06|    0.105464|
|        6560|  3.6725e+01|  3.6725e+01|  -10.245545|  1.1170e-06|    0.105465|
|        6570|  3.6725e+01|  3.6725e+01|  -10.248079|  1.1106e-06|    0.105466|
|        6580|  3.6725e+01|  3.6725e+01|  -10.250613|  1.1042e-06|    0.105467|
|        6590|  3.6725e+01|  3.6725e+01|  -10.253146|  1.0979e-06|    0.105468|
|        6600|  3.6725e+01|  3.6725e+01|  -10.255679|  1.0916e-06|    0.105470|
+-----------------------------------------------------------------------+
|        File Writing Summary       |              Filename             |
+-----------------------------------------------------------------------+
|SU2 binary restart                 |restart_flow_aoa14.dat             |
|Paraview                           |flow_aoa14.vtu                     |
|Paraview surface                   |surface_flow_aoa14.vtu             |
+-----------------------------------------------------------------------+
+-----------------------------------------------------------------------------+
|  Inner_Iter|     Min CFL|     Max CFL|      rms[P]|  Cauchy[CD]|          CD|
+-----------------------------------------------------------------------------+
|        6610|  3.6725e+01|  3.6725e+01|  -10.258211|  1.0854e-06|    0.105471|
|        6620|  3.6725e+01|  3.6725e+01|  -10.260743|  1.0792e-06|    0.105472|
|        6630|  3.6725e+01|  3.6725e+01|  -10.263274|  1.0730e-06|    0.105473|
|        6640|  3.6725e+01|  3.6725e+01|  -10.265805|  1.0668e-06|    0.105474|
|        6650|  3.6725e+01|  3.6725e+01|  -10.268336|  1.0607e-06|    0.105475|
|        6660|  3.6725e+01|  3.6725e+01|  -10.270866|  1.0546e-06|    0.105476|
|        6670|  3.6725e+01|  3.6725e+01|  -10.273396|  1.0486e-06|    0.105477|
|        6680|  3.6725e+01|  3.6725e+01|  -10.275925|  1.0426e-06|    0.105478|
|        6690|  3.6725e+01|  3.6725e+01|  -10.278454|  1.0366e-06|    0.105479|
|        6700|  3.6725e+01|  3.6725e+01|  -10.280983|  1.0307e-06|    0.105480|
|        6710|  3.6725e+01|  3.6725e+01|  -10.283511|  1.0248e-06|    0.105481|
|        6720|  3.6725e+01|  3.6725e+01|  -10.286038|  1.0189e-06|    0.105482|
|        6730|  3.6725e+01|  3.6725e+01|  -10.288565|  1.0131e-06|    0.105483|
|        6740|  3.6725e+01|  3.6725e+01|  -10.291091|  1.0073e-06|    0.105484|
|        6750|  3.6725e+01|  3.6725e+01|  -10.293617|  1.0015e-06|    0.105485|
|        6753|  3.6725e+01|  3.6725e+01|  -10.294375|  9.9975e-07|    0.105485|

----------------------------- Solver Exit -------------------------------
All convergence criteria satisfied.
+-----------------------------------------------------------------------+
|      Convergence Field     |     Value    |   Criterion  |  Converged |
+-----------------------------------------------------------------------+
|                      rms[P]|      -10.2944|          < -9|         Yes|
|                  Cauchy[CD]|   9.99753e-07|       < 1e-06|         Yes|
+-----------------------------------------------------------------------+
-------------------------------------------------------------------------
+-----------------------------------------------------------------------+
|        File Writing Summary       |              Filename             |
+-----------------------------------------------------------------------+
|SU2 binary restart                 |restart_flow_aoa14.dat             |
|Paraview                           |flow_aoa14.vtu                     |
|Paraview surface                   |surface_flow_aoa14.vtu             |
+-----------------------------------------------------------------------+

------------------------- Solver Postprocessing -------------------------
Deleted CNumerics container.
Deleted CIntegration container.
Deleted CSolver container.
Deleted CIteration container.
Deleted CInterface container.
Deleted CGeometry container.
Deleted CFreeFormDefBox class.
Deleted CSurfaceMovement class.
Deleted CVolumetricMovement class.
Deleted CConfig container.
Deleted nInst container.
Deleted COutput class.
-------------------------------------------------------------------------

------------------------- Exit Success (SU2_CFD) ------------------------

