
-------------------------------------------------------------------------
|    ___ _   _ ___                                                      |
|   / __| | | |_  )   Release 7.4.0 "Blackbird"                         |
|   \__ \ |_| |/ /                                                      |
|   |___/\___//___|   Suite (Computational Fluid Dynamics Code)         |
|                                                                       |
-------------------------------------------------------------------------
| SU2 Project Website: https://su2code.github.io                        |
|                                                                       |
| The SU2 Project is maintained by the SU2 Foundation                   |
| (http://su2foundation.org)                                            |
-------------------------------------------------------------------------
| Copyright 2012-2022, SU2 Contributors                                 |
|                                                                       |
| SU2 is free software; you can redistribute it and/or                  |
| modify it under the terms of the GNU Lesser General Public            |
| License as published by the Free Software Foundation; either          |
| version 2.1 of the License, or (at your option) any later version.    |
|                                                                       |
| SU2 is distributed in the hope that it will be useful,                |
| but WITHOUT ANY WARRANTY; without even the implied warranty of        |
| MERCHANTABILITY or FITNESS FOR A PARTICULAR PURPOSE. See the GNU      |
| Lesser General Public License for more details.                       |
|                                                                       |
| You should have received a copy of the GNU Lesser General Public      |
| License along with SU2. If not, see <http://www.gnu.org/licenses/>.   |
-------------------------------------------------------------------------

Parsing config file for zone 0

----------------- Physical Case Definition ( Zone 0 ) -------------------
Incompressible RANS equations.
Turbulence model: Spalart-Allmaras-noft2
Hybrid RANS/LES: No Hybrid RANS/LES
No restart solution, use the values at infinity (freestream).
Non-Dimensional simulation using intialization values.
The reference area is 1 m^2.
The semi-span will be computed using the max y(3D) value.
The reference length is 1.00898 m.
Reference origin for moment evaluation is (-0.756, 0, 0).
Surface(s) where the force coefficients are evaluated: AIRFOIL.

Surface(s) plotted in the output file: AIRFOIL.
Input mesh file name: ../meshG5/meshG5.su2

--------------- Space Numerical Integration ( Zone 0 ) ------------------
Flux difference splitting (FDS) upwind scheme for the flow inviscid terms.
First order integration in space.
Average of gradients with correction (viscous flow terms).
Average of gradients with correction (viscous turbulence terms).
Gradient for upwind reconstruction: unweighted Least-Squares.
Gradient for viscous and source terms: Green-Gauss.

--------------- Time Numerical Integration  ( Zone 0 ) ------------------
Local time stepping (steady state simulation).
Euler implicit method for the flow equations.
FGMRES is used for solving the linear system.
Using a ILU(0) preconditioning.
Convergence criteria of the linear solver: 1e-06.
Max number of linear iterations: 10.
CFL adaptation. Factor down: 0.1, factor up: 1.2,
                lower limit: 1, upper limit: 1000,
                acceptable linear residual: 0.001.
Courant-Friedrichs-Lewy number:        2
Euler implicit time integration for the turbulence model.

------------------ Convergence Criteria  ( Zone 0 ) ---------------------
Maximum number of solver subiterations: 9999.
Begin convergence monitoring at iteration 10.
Residual minimum value: 1e-9.
Cauchy series min. value: 1e-06.
Number of Cauchy elements: 250.
Begin windowed time average at iteration 0.

-------------------- Output Information ( Zone 0 ) ----------------------
File writing frequency: 
+------------------------------------+
|                     File| Frequency|
+------------------------------------+
|                  RESTART|       200|
|                 PARAVIEW|       200|
|         SURFACE_PARAVIEW|       200|
+------------------------------------+
Writing the convergence history file every 1 inner iterations.
Writing the screen convergence history every 10 inner iterations.
The tabular file format is CSV (.csv).
Convergence history file name: history_aoa15.
Forces breakdown file name: forces_breakdown.dat.
Surface file name: surface_flow_aoa15.
Volume file name: flow_aoa15.
Restart file name: restart_flow_aoa15.dat.

------------- Config File Boundary Information ( Zone 0 ) ---------------
+-----------------------------------------------------------------------+
|                        Marker Type|                        Marker Name|
+-----------------------------------------------------------------------+
|                          Far-field|                           FARFIELD|
+-----------------------------------------------------------------------+
|                     Heat flux wall|                            AIRFOIL|
+-----------------------------------------------------------------------+

-------------------- Output Preprocessing ( Zone 0 ) --------------------

WARNING: SURFACE_PRESSURE_DROP can only be computed for at least 2 surfaces (outlet, inlet, ...)

Screen output fields: INNER_ITER, MIN_CFL, MAX_CFL, RMS_PRESSURE, CAUCHY_DRAG, DRAG
History output group(s): INNER_ITER, MIN_CFL, MAX_CFL, RMS_RES, LIFT, DRAG, MOMENT_Z, CAUCHY
Convergence field(s): RMS_PRESSURE, DRAG
Warning: No (valid) fields chosen for time convergence monitoring. Time convergence monitoring inactive.
Volume output fields: COORDINATES, SOLUTION, PRIMITIVE, RESIDUAL, MESH_QUALITY

------------------- Geometry Preprocessing ( Zone 0 ) -------------------
Two dimensional problem.
361479 grid points before partitioning.
360180 volume elements before partitioning.
2 surface markers.
724 boundary elements in index 0 (Marker = AIRFOIL).
1874 boundary elements in index 1 (Marker = FARFIELD).
Executing the partitioning functions.
Building the graph adjacency structure.
Calling ParMETIS... graph partitioning complete (4050 edge cuts).
Distributing ParMETIS coloring.
Rebalancing vertices.
Rebalancing volume element connectivity.
Rebalancing markers and surface elements.
369602 vertices including ghost points. 
364230 interior elements including halo cells. 
364230 quadrilaterals.
Establishing MPI communication patterns.
Setting point connectivity.
Renumbering points (Reverse Cuthill McKee Ordering).
Recomputing point connectivity.
Setting element connectivity.
Checking the numerical grid orientation.
All volume elements are correctly orientend.
There has been a re-orientation of 1305 LINE surface elements.
Identifying edges and vertices.
Setting the control volume structure.
Area of the computational grid: 103207.
Searching for the closest normal neighbors to the surfaces.
Storing a mapping from global to local point index.
Compute the surface curvature.
Max K: 227502. Mean K: 205.598. Standard deviation K: 4719.73.
Checking for periodicity.
Computing mesh quality statistics for the dual control volumes.
+--------------------------------------------------------------+
|           Mesh Quality Metric|        Minimum|        Maximum|
+--------------------------------------------------------------+
|    Orthogonality Angle (deg.)|        75.9136|             90|
|     CV Face Area Aspect Ratio|        1.00002|    3.17894e+06|
|           CV Sub-Volume Ratio|              1|         387.07|
+--------------------------------------------------------------+
Finding max control volume width.
Communicating number of neighbors.
Wetted area = 2.0597 m.
Area projection in the x-plane = 0.121116 m, y-plane = 1.00881 m.
Max. coordinate in the x-direction = 1.00898 m, y-direction = 0.0759837 m.
Min. coordinate in the x-direction = 4.86614e-06 m, y-direction = -0.0451345 m.
Computing wall distances.

-------------------- Solver Preprocessing ( Zone 0 ) --------------------
Incompressible flow: rho_ref, vel_ref, and temp_ref
are based on the initial values, p_ref = rho_ref*vel_ref^2.
Force coefficients computed using initial values.
The reference area for force coeffs. is 1 m^2.
The reference length for force coeffs. is 1.00898 m.
The pressure is decomposed into thermodynamic and dynamic components.
The initial value of the dynamic pressure is 0.
Mach number: 0.0276747, computed using the Bulk modulus.
For external flows, the initial state is imposed at the far-field.
Angle of attack (deg): 15.0003, computed using the initial velocity.
Side slip angle (deg): 0, computed using the initial velocity.
Reynolds number per meter: 595000, computed using initial values.
Reynolds number is a byproduct of inputs only (not used internally).
SI units only. The grid should be dimensional (meters).
No energy equation.

-- Models:
+------------------------------------------------------------------------------+
|          Viscosity Model|        Conductivity Model|              Fluid Model|
+------------------------------------------------------------------------------+
|       CONSTANT_VISCOSITY|          CONSTANT_PRANDTL|         CONSTANT_DENSITY|
+------------------------------------------------------------------------------+
-- Fluid properties:
+------------------------------------------------------------------------------+
|                  Name|    Dim. value|    Ref. value|      Unit|Non-dim. value|
+------------------------------------------------------------------------------+
|             Viscosity|      1.92e-05|        11.424|   N.s/m^2|   1.68067e-06|
+------------------------------------------------------------------------------+
|        Prandtl (Lam.)|             -|             -|         -|          0.72|
|       Prandtl (Turb.)|             -|             -|         -|           0.9|
+------------------------------------------------------------------------------+
|          Bulk Modulus|        142000|             1|        Pa|        142000|
+------------------------------------------------------------------------------+
-- Initial and free-stream conditions:
+------------------------------------------------------------------------------+
|                  Name|    Dim. value|    Ref. value|      Unit|Non-dim. value|
+------------------------------------------------------------------------------+
|      Dynamic Pressure|             0|       108.756|        Pa|             0|
|        Total Pressure|       54.3782|       108.756|        Pa|           0.5|
|               Density|           1.2|           1.2|    kg/m^3|             1|
|            Velocity-X|        9.1956|          9.52|       m/s|      0.965925|
|            Velocity-Y|         2.464|          9.52|       m/s|      0.258824|
|    Velocity Magnitude|          9.52|          9.52|       m/s|             1|
+------------------------------------------------------------------------------+
|             Viscosity|      1.92e-05|        11.424|   N.s/m^2|   1.68067e-06|
|          Conductivity|             -|       3.59313|   W/m^2.K|             -|
|     Turb. Kin. Energy|       1.35946|       90.6304|   m^2/s^2|         0.015|
|     Spec. Dissipation|        8496.6|          9.52|       1/s|         892.5|
+------------------------------------------------------------------------------+
|           Mach Number|             -|             -|         -|     0.0276747|
|       Reynolds Number|             -|             -|         -|        595000|
+------------------------------------------------------------------------------+
Initialize Jacobian structure (Navier-Stokes). MG level: 0.
Initialize Jacobian structure (SA model).

------------------- Numerics Preprocessing ( Zone 0 ) -------------------

----------------- Integration Preprocessing ( Zone 0 ) ------------------

------------------- Iteration Preprocessing ( Zone 0 ) ------------------
Euler/Navier-Stokes/RANS fluid iteration.

------------------------------ Begin Solver -----------------------------

Simulation Run using the Single-zone Driver
+-----------------------------------------------------------------------------+
|  Inner_Iter|     Min CFL|     Max CFL|      rms[P]|  Cauchy[CD]|          CD|
+-----------------------------------------------------------------------------+
|           0|  2.4000e+00|  2.4000e+00|   -4.367864|  1.0000e+00|    0.711220|
|          10|  1.4860e+01|  1.4860e+01|   -5.098378|  1.2134e-03|    0.957629|
|          20|  7.6675e+00|  7.6675e+00|   -5.269740|  1.2575e-03|    0.947132|
|          30|  3.2969e+00|  3.2969e+00|   -5.201410|  1.5013e-03|    0.891396|
|          40|  2.0413e+01|  2.0413e+01|   -5.152163|  1.7246e-03|    0.843170|
|          50|  1.0533e+01|  1.0533e+01|   -5.114691|  2.4090e-03|    0.712151|
|          60|  5.4348e+00|  5.4348e+00|   -5.107263|  3.3672e-03|    0.562599|
|          70|  3.3651e+01|  3.3651e+01|   -5.096916|  4.1495e-03|    0.463812|
|          80|  1.4469e+01|  1.4469e+01|   -5.133897|  5.6405e-03|    0.322845|
|          90|  4.3205e+01|  4.3205e+01|   -5.222697|  8.4264e-03|    0.165148|
|         100|  4.3205e+01|  4.3205e+01|   -5.265864|  1.1606e-02|    0.072715|
|         110|  4.3205e+01|  4.3205e+01|   -5.291515|  1.4647e-02|   -0.003328|
|         120|  1.2901e+01|  1.2901e+01|   -5.286480|  1.6101e-02|   -0.039674|
|         130|  5.5471e+00|  5.5471e+00|   -5.289738|  1.7143e-02|   -0.022401|
|         140|  3.4346e+01|  3.4346e+01|   -5.298457|  1.8587e-02|    0.013714|
|         150|  1.7722e+01|  1.7722e+01|   -5.308791|  2.1478e-02|    0.085989|
|         160|  9.1441e+00|  9.1441e+00|   -5.304115|  2.4634e-02|    0.198953|
|         170|  4.7182e+01|  4.7182e+01|   -5.302793|  2.6127e-02|    0.291239|
|         180|  6.7942e+00|  6.7942e+00|   -5.329713|  2.6819e-02|    0.329012|
|         190|  4.2068e+01|  4.2068e+01|   -5.319302|  2.7254e-02|    0.295410|
|         200|  8.7231e+00|  8.7231e+00|   -5.311021|  2.9557e-02|    0.169361|
+-----------------------------------------------------------------------+
|        File Writing Summary       |              Filename             |
+-----------------------------------------------------------------------+
|SU2 binary restart                 |restart_flow_aoa15.dat             |
|Paraview                           |flow_aoa15.vtu                     |
|Paraview surface                   |surface_flow_aoa15.vtu             |
+-----------------------------------------------------------------------+
+-----------------------------------------------------------------------------+
|  Inner_Iter|     Min CFL|     Max CFL|      rms[P]|  Cauchy[CD]|          CD|
+-----------------------------------------------------------------------------+
|         210|  5.4011e+01|  5.4011e+01|   -5.298206|  3.0999e-02|    0.119000|
|         220|  2.7869e+01|  2.7869e+01|   -5.300536|  3.1649e-02|    0.101395|
|         230|  1.4380e+01|  1.4380e+01|   -5.323201|  3.1980e-02|    0.105407|
|         240|  6.1830e+01|  6.1830e+01|   -5.337657|  3.3118e-02|    0.140799|
|         250|  3.1903e+01|  3.1903e+01|   -5.348276|  3.3637e-02|    0.160583|
|         260|  1.6461e+01|  1.6461e+01|   -5.361988|  3.2792e-02|    0.176168|
|         270|  8.4936e+00|  8.4936e+00|   -5.357114|  3.2935e-02|    0.184645|
|         280|  5.2590e+01|  5.2590e+01|   -5.346681|  3.2770e-02|    0.188319|
|         290|  6.3108e+00|  6.3108e+00|   -5.387023|  3.2762e-02|    0.198795|
|         300|  3.9075e+01|  3.9075e+01|   -5.412334|  3.2100e-02|    0.198154|
|         310|  2.0162e+01|  2.0162e+01|   -5.433832|  3.1301e-02|    0.190481|
|         320|  1.0403e+01|  1.0403e+01|   -5.439651|  3.0990e-02|    0.169461|
|         330|  5.3677e+01|  5.3677e+01|   -5.427106|  3.0115e-02|    0.145514|
|         340|  6.4413e+01|  6.4413e+01|   -5.425741|  2.7982e-02|    0.123798|
|         350|  3.3236e+01|  3.3236e+01|   -5.458644|  2.4908e-02|    0.127111|
|         360|  5.7431e+01|  5.7431e+01|   -5.571167|  2.2598e-02|    0.152874|
|         370|  1.1909e+01|  1.1909e+01|   -5.582572|  2.1593e-02|    0.171207|
|         380|  6.1447e+00|  6.1447e+00|   -5.571490|  2.0716e-02|    0.178418|
|         390|  3.8047e+01|  3.8047e+01|   -5.579080|  1.9289e-02|    0.178294|
|         400|  9.4672e+00|  9.4672e+00|   -5.657337|  1.6708e-02|    0.165066|
+-----------------------------------------------------------------------+
|        File Writing Summary       |              Filename             |
+-----------------------------------------------------------------------+
|SU2 binary restart                 |restart_flow_aoa15.dat             |
|Paraview                           |flow_aoa15.vtu                     |
|Paraview surface                   |surface_flow_aoa15.vtu             |
+-----------------------------------------------------------------------+
+-----------------------------------------------------------------------------+
|  Inner_Iter|     Min CFL|     Max CFL|      rms[P]|  Cauchy[CD]|          CD|
+-----------------------------------------------------------------------------+
|         410|  5.8619e+01|  5.8619e+01|   -5.702294|  1.3841e-02|    0.153628|
|         420|  3.0246e+01|  3.0246e+01|   -5.742715|  1.2567e-02|    0.145452|
|         430|  1.5606e+01|  1.5606e+01|   -5.773591|  1.2154e-02|    0.135722|
|         440|  5.5920e+01|  5.5920e+01|   -5.779613|  1.1903e-02|    0.129666|
|         450|  2.0037e+01|  2.0037e+01|   -5.798577|  9.6487e-03|    0.131003|
|         460|  5.9830e+01|  5.9830e+01|   -5.860639|  8.4629e-03|    0.139703|
|         470|  1.4888e+01|  1.4888e+01|   -5.975602|  8.0291e-03|    0.147522|
|         480|  7.6817e+00|  7.6817e+00|   -6.034718|  7.8248e-03|    0.152269|
|         490|  4.7563e+01|  4.7563e+01|   -6.018869|  6.7136e-03|    0.153282|
|         500|  2.4542e+01|  2.4542e+01|   -5.965734|  6.2266e-03|    0.152032|
|         510|  6.1067e+01|  6.1067e+01|   -5.963902|  6.0612e-03|    0.144561|
|         520|  1.2663e+01|  1.2663e+01|   -6.154442|  6.0688e-03|    0.137705|
|         530|  6.5338e+00|  6.5338e+00|   -6.313015|  6.0875e-03|    0.134397|
|         540|  4.0456e+01|  4.0456e+01|   -6.306441|  5.8858e-03|    0.133918|
|         550|  2.0874e+01|  2.0874e+01|   -6.185494|  5.8984e-03|    0.135090|
|         560|  6.2330e+01|  6.2330e+01|   -6.161214|  5.8631e-03|    0.139321|
|         570|  1.5510e+01|  1.5510e+01|   -6.345025|  5.4517e-03|    0.141448|
|         580|  8.0027e+00|  8.0027e+00|   -6.467285|  4.8533e-03|    0.141243|
|         590|  4.9550e+01|  4.9550e+01|   -6.388224|  4.2298e-03|    0.140183|
|         600|  5.9460e+01|  5.9460e+01|   -6.235016|  4.2429e-03|    0.136098|
+-----------------------------------------------------------------------+
|        File Writing Summary       |              Filename             |
+-----------------------------------------------------------------------+
|SU2 binary restart                 |restart_flow_aoa15.dat             |
|Paraview                           |flow_aoa15.vtu                     |
|Paraview surface                   |surface_flow_aoa15.vtu             |
+-----------------------------------------------------------------------+
+-----------------------------------------------------------------------------+
|  Inner_Iter|     Min CFL|     Max CFL|      rms[P]|  Cauchy[CD]|          CD|
+-----------------------------------------------------------------------------+
|         610|  5.9460e+01|  5.9460e+01|   -6.488846|  3.5778e-03|    0.133877|
|         620|  1.7755e+01|  1.7755e+01|   -6.555070|  3.1352e-03|    0.133666|
|         630|  9.1611e+00|  9.1611e+00|   -6.419338|  2.9790e-03|    0.133951|
|         640|  5.6723e+01|  5.6723e+01|   -6.382188|  2.9715e-03|    0.134283|
|         650|  2.9268e+01|  2.9268e+01|   -6.404857|  2.6683e-03|    0.134510|
|         660|  6.0690e+01|  6.0690e+01|   -6.585179|  2.4040e-03|    0.133733|
|         670|  6.0690e+01|  6.0690e+01|   -6.485343|  2.2839e-03|    0.130448|
|         680|  6.0690e+01|  6.0690e+01|   -6.471817|  2.0913e-03|    0.127682|
|         690|  2.1746e+01|  2.1746e+01|   -6.600238|  1.9194e-03|    0.127328|
|         700|  6.4934e+01|  6.4934e+01|   -6.702970|  1.8889e-03|    0.127919|
|         710|  6.4934e+01|  6.4934e+01|   -6.670373|  1.6593e-03|    0.128772|
|         720|  6.4934e+01|  6.4934e+01|   -6.787419|  1.4724e-03|    0.127819|
|         730|  6.4934e+01|  6.4934e+01|   -6.703828|  1.4235e-03|    0.125365|
|         740|  6.4934e+01|  6.4934e+01|   -6.704779|  1.4484e-03|    0.123766|
|         750|  6.4934e+01|  6.4934e+01|   -6.789973|  1.4340e-03|    0.124226|
|         760|  6.4934e+01|  6.4934e+01|   -6.893201|  1.2614e-03|    0.125150|
|         770|  2.7920e+01|  2.7920e+01|   -6.970444|  1.0692e-03|    0.125151|
|         780|  1.4406e+01|  1.4406e+01|   -6.995251|  9.8457e-04|    0.124752|
|         790|  7.4333e+00|  7.4333e+00|   -6.957418|  9.9766e-04|    0.123902|
|         800|  4.6025e+01|  4.6025e+01|   -6.919270|  9.7891e-04|    0.123405|
+-----------------------------------------------------------------------+
|        File Writing Summary       |              Filename             |
+-----------------------------------------------------------------------+
|SU2 binary restart                 |restart_flow_aoa15.dat             |
|Paraview                           |flow_aoa15.vtu                     |
|Paraview surface                   |surface_flow_aoa15.vtu             |
+-----------------------------------------------------------------------+
+-----------------------------------------------------------------------------+
|  Inner_Iter|     Min CFL|     Max CFL|      rms[P]|  Cauchy[CD]|          CD|
+-----------------------------------------------------------------------------+
|         810|  6.6276e+01|  6.6276e+01|   -6.854714|  8.9286e-04|    0.122266|
|         820|  6.6276e+01|  6.6276e+01|   -6.864479|  8.4631e-04|    0.122547|
|         830|  6.6276e+01|  6.6276e+01|   -6.918683|  8.6119e-04|    0.123526|
|         840|  6.6276e+01|  6.6276e+01|   -6.948058|  8.4183e-04|    0.123746|
|         850|  6.6276e+01|  6.6276e+01|   -6.922066|  7.4559e-04|    0.123060|
|         860|  6.6276e+01|  6.6276e+01|   -6.874425|  6.9763e-04|    0.122511|
|         870|  6.6276e+01|  6.6276e+01|   -6.866231|  6.9999e-04|    0.122756|
|         880|  6.6276e+01|  6.6276e+01|   -6.884970|  7.1140e-04|    0.123369|
|         890|  6.6276e+01|  6.6276e+01|   -6.907997|  7.0965e-04|    0.123619|
|         900|  6.6276e+01|  6.6276e+01|   -6.927008|  7.0996e-04|    0.123401|
|         910|  1.9790e+01|  1.9790e+01|   -6.931238|  6.9110e-04|    0.123231|
|         920|  1.0211e+01|  1.0211e+01|   -6.925189|  5.9406e-04|    0.123151|
|         930|  6.3225e+01|  6.3225e+01|   -6.921640|  5.0868e-04|    0.123155|
|         940|  3.2623e+01|  3.2623e+01|   -6.917875|  4.9953e-04|    0.123215|
|         950|  1.6833e+01|  1.6833e+01|   -6.910913|  4.8529e-04|    0.123347|
|         960|  7.2377e+01|  7.2377e+01|   -6.902517|  4.6360e-04|    0.123498|
|         970|  7.2377e+01|  7.2377e+01|   -6.907026|  4.3688e-04|    0.123586|
|         980|  1.5008e+01|  1.5008e+01|   -6.924017|  3.6236e-04|    0.123490|
|         990|  7.7439e+01|  7.7439e+01|   -6.927872|  3.1438e-04|    0.123385|
|        1000|  7.7439e+01|  7.7439e+01|   -6.938041|  2.9996e-04|    0.123263|
+-----------------------------------------------------------------------+
|        File Writing Summary       |              Filename             |
+-----------------------------------------------------------------------+
|SU2 binary restart                 |restart_flow_aoa15.dat             |
|Paraview                           |flow_aoa15.vtu                     |
|Paraview surface                   |surface_flow_aoa15.vtu             |
+-----------------------------------------------------------------------+
+-----------------------------------------------------------------------------+
|  Inner_Iter|     Min CFL|     Max CFL|      rms[P]|  Cauchy[CD]|          CD|
+-----------------------------------------------------------------------------+
|        1010|  7.7439e+01|  7.7439e+01|   -6.945671|  2.7089e-04|    0.123257|
|        1020|  7.7439e+01|  7.7439e+01|   -6.960823|  2.6932e-04|    0.123221|
|        1030|  7.7439e+01|  7.7439e+01|   -6.986544|  2.6148e-04|    0.123069|
|        1040|  7.7439e+01|  7.7439e+01|   -7.019199|  2.4025e-04|    0.122880|
|        1050|  7.7439e+01|  7.7439e+01|   -7.055858|  2.2891e-04|    0.122735|
|        1060|  7.7439e+01|  7.7439e+01|   -7.096726|  1.9566e-04|    0.122617|
|        1070|  1.1151e+01|  1.1151e+01|   -7.137441|  1.8562e-04|    0.122496|
|        1080|  6.9045e+01|  6.9045e+01|   -7.148868|  1.5616e-04|    0.122424|
|        1090|  3.5626e+01|  3.5626e+01|   -7.165615|  1.4750e-04|    0.122359|
|        1100|  7.3874e+01|  7.3874e+01|   -7.192015|  1.3045e-04|    0.122200|
|        1110|  7.3874e+01|  7.3874e+01|   -7.220415|  1.1765e-04|    0.122044|
|        1120|  1.5318e+01|  1.5318e+01|   -7.239308|  1.1153e-04|    0.121957|
|        1130|  7.9040e+00|  7.9040e+00|   -7.244538|  9.3886e-05|    0.121888|
|        1140|  4.8939e+01|  4.8939e+01|   -7.247882|  8.6969e-05|    0.121850|
|        1150|  2.5252e+01|  2.5252e+01|   -7.251485|  8.1931e-05|    0.121788|
|        1160|  1.3029e+01|  1.3029e+01|   -7.251498|  7.9441e-05|    0.121696|
|        1170|  8.0674e+01|  8.0674e+01|   -7.248679|  7.9407e-05|    0.121618|
|        1180|  8.0674e+01|  8.0674e+01|   -7.239653|  8.3027e-05|    0.121495|
|        1190|  8.0674e+01|  8.0674e+01|   -7.229099|  8.3885e-05|    0.121409|
|        1200|  8.0674e+01|  8.0674e+01|   -7.218729|  8.2376e-05|    0.121325|
+-----------------------------------------------------------------------+
|        File Writing Summary       |              Filename             |
+-----------------------------------------------------------------------+
|SU2 binary restart                 |restart_flow_aoa15.dat             |
|Paraview                           |flow_aoa15.vtu                     |
|Paraview surface                   |surface_flow_aoa15.vtu             |
+-----------------------------------------------------------------------+
+-----------------------------------------------------------------------------+
|  Inner_Iter|     Min CFL|     Max CFL|      rms[P]|  Cauchy[CD]|          CD|
+-----------------------------------------------------------------------------+
|        1210|  8.0674e+01|  8.0674e+01|   -7.209348|  8.0489e-05|    0.121234|
|        1220|  8.0674e+01|  8.0674e+01|   -7.203598|  7.9406e-05|    0.121170|
|        1230|  8.0674e+01|  8.0674e+01|   -7.203662|  7.7309e-05|    0.121139|
|        1240|  2.0074e+01|  2.0074e+01|   -7.211581|  7.4257e-05|    0.121129|
|        1250|  1.0358e+01|  1.0358e+01|   -7.211582|  7.0845e-05|    0.121117|
|        1260|  6.4133e+01|  6.4133e+01|   -7.218983|  7.0648e-05|    0.121108|
|        1270|  7.6960e+01|  7.6960e+01|   -7.230267|  6.9640e-05|    0.121105|
|        1280|  7.6960e+01|  7.6960e+01|   -7.251625|  6.5352e-05|    0.121124|
|        1290|  7.6960e+01|  7.6960e+01|   -7.280781|  6.0575e-05|    0.121166|
|        1300|  3.3091e+01|  3.3091e+01|   -7.299564|  5.6218e-05|    0.121178|
|        1310|  1.7074e+01|  1.7074e+01|   -7.316630|  5.2995e-05|    0.121196|
|        1320|  7.3417e+01|  7.3417e+01|   -7.333612|  4.9732e-05|    0.121217|
|        1330|  7.3417e+01|  7.3417e+01|   -7.377401|  4.8793e-05|    0.121260|
|        1340|  7.3417e+01|  7.3417e+01|   -7.425643|  4.8709e-05|    0.121322|
|        1350|  7.3417e+01|  7.3417e+01|   -7.474974|  4.5873e-05|    0.121393|
|        1360|  7.3417e+01|  7.3417e+01|   -7.519033|  4.2904e-05|    0.121458|
|        1370|  7.3417e+01|  7.3417e+01|   -7.551275|  4.2135e-05|    0.121522|
|        1380|  7.3417e+01|  7.3417e+01|   -7.566487|  4.2115e-05|    0.121590|
|        1390|  7.3417e+01|  7.3417e+01|   -7.565202|  4.3313e-05|    0.121664|
|        1400|  7.3417e+01|  7.3417e+01|   -7.553240|  4.3648e-05|    0.121736|
+-----------------------------------------------------------------------+
|        File Writing Summary       |              Filename             |
+-----------------------------------------------------------------------+
|SU2 binary restart                 |restart_flow_aoa15.dat             |
|Paraview                           |flow_aoa15.vtu                     |
|Paraview surface                   |surface_flow_aoa15.vtu             |
+-----------------------------------------------------------------------+
+-----------------------------------------------------------------------------+
|  Inner_Iter|     Min CFL|     Max CFL|      rms[P]|  Cauchy[CD]|          CD|
+-----------------------------------------------------------------------------+
|        1410|  7.3417e+01|  7.3417e+01|   -7.538056|  4.2826e-05|    0.121803|
|        1420|  7.3417e+01|  7.3417e+01|   -7.525551|  4.2496e-05|    0.121871|
|        1430|  2.1922e+01|  2.1922e+01|   -7.523166|  3.9875e-05|    0.121915|
|        1440|  1.1311e+01|  1.1311e+01|   -7.519443|  3.7946e-05|    0.121942|
|        1450|  7.0037e+01|  7.0037e+01|   -7.519341|  3.5955e-05|    0.121966|
|        1460|  3.6138e+01|  3.6138e+01|   -7.521006|  3.3986e-05|    0.121997|
|        1470|  7.4935e+01|  7.4935e+01|   -7.521713|  3.3646e-05|    0.122052|
|        1480|  7.4935e+01|  7.4935e+01|   -7.535340|  3.4797e-05|    0.122117|
|        1490|  7.4935e+01|  7.4935e+01|   -7.556663|  3.6673e-05|    0.122185|
|        1500|  7.4935e+01|  7.4935e+01|   -7.586430|  3.8032e-05|    0.122244|
|        1510|  7.4935e+01|  7.4935e+01|   -7.624263|  3.9466e-05|    0.122299|
|        1520|  7.4935e+01|  7.4935e+01|   -7.669723|  4.1038e-05|    0.122354|
|        1530|  8.9922e+00|  8.9922e+00|   -7.722607|  4.2100e-05|    0.122406|
|        1540|  5.5677e+01|  5.5677e+01|   -7.741542|  4.1067e-05|    0.122416|
|        1550|  2.8728e+01|  2.8728e+01|   -7.766685|  4.1579e-05|    0.122444|
|        1560|  7.1485e+01|  7.1485e+01|   -7.805423|  4.2328e-05|    0.122485|
|        1570|  7.1485e+01|  7.1485e+01|   -7.865462|  4.3260e-05|    0.122535|
|        1580|  1.0294e+01|  1.0294e+01|   -7.916687|  4.3392e-05|    0.122582|
|        1590|  6.3737e+01|  6.3737e+01|   -7.932377|  4.1833e-05|    0.122597|
|        1600|  3.2887e+01|  3.2887e+01|   -7.948296|  4.0273e-05|    0.122622|
+-----------------------------------------------------------------------+
|        File Writing Summary       |              Filename             |
+-----------------------------------------------------------------------+
|SU2 binary restart                 |restart_flow_aoa15.dat             |
|Paraview                           |flow_aoa15.vtu                     |
|Paraview surface                   |surface_flow_aoa15.vtu             |
+-----------------------------------------------------------------------+
+-----------------------------------------------------------------------------+
|  Inner_Iter|     Min CFL|     Max CFL|      rms[P]|  Cauchy[CD]|          CD|
+-----------------------------------------------------------------------------+
|        1610|  6.8194e+01|  6.8194e+01|   -7.967224|  3.9565e-05|    0.122666|
|        1620|  6.8194e+01|  6.8194e+01|   -7.977307|  3.9056e-05|    0.122714|
|        1630|  6.8194e+01|  6.8194e+01|   -7.968486|  3.8577e-05|    0.122768|
|        1640|  6.8194e+01|  6.8194e+01|   -7.948773|  3.7891e-05|    0.122822|
|        1650|  6.8194e+01|  6.8194e+01|   -7.926322|  3.7280e-05|    0.122876|
|        1660|  6.8194e+01|  6.8194e+01|   -7.906693|  3.6796e-05|    0.122929|
|        1670|  6.8194e+01|  6.8194e+01|   -7.893259|  3.6290e-05|    0.122981|
|        1680|  2.9322e+01|  2.9322e+01|   -7.893373|  3.5455e-05|    0.123000|
|        1690|  1.5130e+01|  1.5130e+01|   -7.889186|  3.5379e-05|    0.123025|
|        1700|  6.5054e+01|  6.5054e+01|   -7.885910|  3.5610e-05|    0.123056|
|        1710|  6.5054e+01|  6.5054e+01|   -7.889212|  3.6384e-05|    0.123112|
|        1720|  6.5054e+01|  6.5054e+01|   -7.900477|  3.6380e-05|    0.123167|
|        1730|  6.5054e+01|  6.5054e+01|   -7.918343|  3.6069e-05|    0.123224|
|        1740|  6.5054e+01|  6.5054e+01|   -7.941581|  3.5640e-05|    0.123279|
|        1750|  2.3310e+01|  2.3310e+01|   -7.959453|  3.4498e-05|    0.123302|
|        1760|  1.2028e+01|  1.2028e+01|   -7.974266|  3.3532e-05|    0.123328|
|        1770|  6.2059e+01|  6.2059e+01|   -7.987878|  3.2567e-05|    0.123354|
|        1780|  6.2059e+01|  6.2059e+01|   -8.022593|  3.2627e-05|    0.123408|
|        1790|  8.9366e+00|  8.9366e+00|   -8.059996|  3.3700e-05|    0.123452|
|        1800|  5.5333e+01|  5.5333e+01|   -8.074748|  3.3397e-05|    0.123470|
+-----------------------------------------------------------------------+
|        File Writing Summary       |              Filename             |
+-----------------------------------------------------------------------+
|SU2 binary restart                 |restart_flow_aoa15.dat             |
|Paraview                           |flow_aoa15.vtu                     |
|Paraview surface                   |surface_flow_aoa15.vtu             |
+-----------------------------------------------------------------------+
+-----------------------------------------------------------------------------+
|  Inner_Iter|     Min CFL|     Max CFL|      rms[P]|  Cauchy[CD]|          CD|
+-----------------------------------------------------------------------------+
|        1810|  2.8551e+01|  2.8551e+01|   -8.091712|  3.2766e-05|    0.123493|
|        1820|  5.9202e+01|  5.9202e+01|   -8.120559|  3.2647e-05|    0.123539|
|        1830|  5.9202e+01|  5.9202e+01|   -8.161269|  3.2728e-05|    0.123589|
|        1840|  7.1043e+00|  7.1043e+00|   -8.198530|  3.3746e-05|    0.123636|
|        1850|  4.3988e+01|  4.3988e+01|   -8.210633|  3.3427e-05|    0.123651|
|        1860|  2.2697e+01|  2.2697e+01|   -8.223505|  3.2690e-05|    0.123672|
|        1870|  5.6477e+01|  5.6477e+01|   -8.239385|  3.2369e-05|    0.123711|
|        1880|  5.6477e+01|  5.6477e+01|   -8.259978|  3.2161e-05|    0.123759|
|        1890|  5.6477e+01|  5.6477e+01|   -8.273540|  3.2009e-05|    0.123809|
|        1900|  5.6477e+01|  5.6477e+01|   -8.280386|  3.1847e-05|    0.123858|
|        1910|  5.6477e+01|  5.6477e+01|   -8.282278|  3.1638e-05|    0.123905|
|        1920|  5.6477e+01|  5.6477e+01|   -8.282201|  3.1452e-05|    0.123952|
|        1930|  5.6477e+01|  5.6477e+01|   -8.282003|  3.2367e-05|    0.124000|
|        1940|  5.6477e+01|  5.6477e+01|   -8.281837|  3.3059e-05|    0.124046|
|        1950|  5.6477e+01|  5.6477e+01|   -8.282617|  3.3535e-05|    0.124092|
|        1960|  5.6477e+01|  5.6477e+01|   -8.286427|  3.3201e-05|    0.124138|
|        1970|  1.6864e+01|  1.6864e+01|   -8.293383|  3.2157e-05|    0.124161|
|        1980|  8.7014e+00|  8.7014e+00|   -8.296925|  3.1027e-05|    0.124183|
|        1990|  5.3877e+01|  5.3877e+01|   -8.301115|  2.9803e-05|    0.124201|
|        2000|  5.3877e+01|  5.3877e+01|   -8.309618|  3.0431e-05|    0.124244|
+-----------------------------------------------------------------------+
|        File Writing Summary       |              Filename             |
+-----------------------------------------------------------------------+
|SU2 binary restart                 |restart_flow_aoa15.dat             |
|Paraview                           |flow_aoa15.vtu                     |
|Paraview surface                   |surface_flow_aoa15.vtu             |
+-----------------------------------------------------------------------+
+-----------------------------------------------------------------------------+
|  Inner_Iter|     Min CFL|     Max CFL|      rms[P]|  Cauchy[CD]|          CD|
+-----------------------------------------------------------------------------+
|        2010|  5.3877e+01|  5.3877e+01|   -8.324082|  3.0940e-05|    0.124286|
|        2020|  5.3877e+01|  5.3877e+01|   -8.342580|  3.1477e-05|    0.124328|
|        2030|  5.3877e+01|  5.3877e+01|   -8.364935|  3.1075e-05|    0.124371|
|        2040|  2.7799e+01|  2.7799e+01|   -8.377569|  3.0069e-05|    0.124383|
|        2050|  1.4344e+01|  1.4344e+01|   -8.389192|  3.0055e-05|    0.124401|
|        2060|  5.1396e+01|  5.1396e+01|   -8.401472|  3.0144e-05|    0.124427|
|        2070|  5.1396e+01|  5.1396e+01|   -8.429171|  2.9893e-05|    0.124466|
|        2080|  5.1396e+01|  5.1396e+01|   -8.460160|  2.9468e-05|    0.124503|
|        2090|  1.5347e+01|  1.5347e+01|   -8.482369|  2.8566e-05|    0.124522|
|        2100|  7.9186e+00|  7.9186e+00|   -8.499595|  2.8695e-05|    0.124541|
|        2110|  4.9030e+01|  4.9030e+01|   -8.511773|  2.8489e-05|    0.124556|
|        2120|  4.9030e+01|  4.9030e+01|   -8.540917|  2.8399e-05|    0.124593|
|        2130|  4.9030e+01|  4.9030e+01|   -8.572219|  2.7976e-05|    0.124628|
|        2140|  4.9030e+01|  4.9030e+01|   -8.601382|  2.7513e-05|    0.124663|
|        2150|  1.2200e+01|  1.2200e+01|   -8.622179|  2.6569e-05|    0.124683|
|        2160|  6.2951e+00|  6.2951e+00|   -8.632311|  2.5613e-05|    0.124701|
|        2170|  3.8977e+01|  3.8977e+01|   -8.642102|  2.4458e-05|    0.124713|
|        2180|  4.6773e+01|  4.6773e+01|   -8.654467|  2.3949e-05|    0.124744|
|        2190|  4.6773e+01|  4.6773e+01|   -8.666112|  2.3488e-05|    0.124777|
|        2200|  4.6773e+01|  4.6773e+01|   -8.672546|  2.3049e-05|    0.124809|
+-----------------------------------------------------------------------+
|        File Writing Summary       |              Filename             |
+-----------------------------------------------------------------------+
|SU2 binary restart                 |restart_flow_aoa15.dat             |
|Paraview                           |flow_aoa15.vtu                     |
|Paraview surface                   |surface_flow_aoa15.vtu             |
+-----------------------------------------------------------------------+
+-----------------------------------------------------------------------------+
|  Inner_Iter|     Min CFL|     Max CFL|      rms[P]|  Cauchy[CD]|          CD|
+-----------------------------------------------------------------------------+
|        2210|  4.6773e+01|  4.6773e+01|   -8.675334|  2.2609e-05|    0.124842|
|        2220|  4.6773e+01|  4.6773e+01|   -8.674798|  2.2889e-05|    0.124874|
|        2230|  4.6773e+01|  4.6773e+01|   -8.671312|  2.3187e-05|    0.124905|
|        2240|  4.6773e+01|  4.6773e+01|   -8.665903|  2.3621e-05|    0.124936|
|        2250|  4.6773e+01|  4.6773e+01|   -8.660493|  2.3227e-05|    0.124968|
|        2260|  4.6773e+01|  4.6773e+01|   -8.656797|  2.2880e-05|    0.124999|
|        2270|  4.6773e+01|  4.6773e+01|   -8.654991|  2.2493e-05|    0.125029|
|        2280|  2.4134e+01|  2.4134e+01|   -8.658390|  2.1439e-05|    0.125039|
|        2290|  1.2453e+01|  1.2453e+01|   -8.657314|  2.1479e-05|    0.125053|
|        2300|  4.4620e+01|  4.4620e+01|   -8.654525|  2.1503e-05|    0.125072|
|        2310|  4.4620e+01|  4.4620e+01|   -8.653305|  2.1624e-05|    0.125101|
|        2320|  4.4620e+01|  4.4620e+01|   -8.654755|  2.1303e-05|    0.125130|
|        2330|  4.4620e+01|  4.4620e+01|   -8.657875|  2.1020e-05|    0.125159|
|        2340|  4.4620e+01|  4.4620e+01|   -8.662800|  2.1334e-05|    0.125188|
|        2350|  4.4620e+01|  4.4620e+01|   -8.667983|  2.1641e-05|    0.125217|
|        2360|  4.4620e+01|  4.4620e+01|   -8.673322|  2.2072e-05|    0.125245|
|        2370|  1.9186e+01|  1.9186e+01|   -8.679092|  2.1241e-05|    0.125256|
|        2380|  9.8994e+00|  9.8994e+00|   -8.681929|  2.0540e-05|    0.125270|
|        2390|  4.2565e+01|  4.2565e+01|   -8.684144|  1.9912e-05|    0.125285|
|        2400|  4.2565e+01|  4.2565e+01|   -8.690297|  2.0126e-05|    0.125312|
+-----------------------------------------------------------------------+
|        File Writing Summary       |              Filename             |
+-----------------------------------------------------------------------+
|SU2 binary restart                 |restart_flow_aoa15.dat             |
|Paraview                           |flow_aoa15.vtu                     |
|Paraview surface                   |surface_flow_aoa15.vtu             |
+-----------------------------------------------------------------------+
+-----------------------------------------------------------------------------+
|  Inner_Iter|     Min CFL|     Max CFL|      rms[P]|  Cauchy[CD]|          CD|
+-----------------------------------------------------------------------------+
|        2410|  4.2565e+01|  4.2565e+01|   -8.698561|  2.0410e-05|    0.125339|
|        2420|  4.2565e+01|  4.2565e+01|   -8.706403|  2.0897e-05|    0.125366|
|        2430|  4.2565e+01|  4.2565e+01|   -8.714198|  2.0741e-05|    0.125393|
|        2440|  4.2565e+01|  4.2565e+01|   -8.722419|  2.0560e-05|    0.125420|
|        2450|  1.8302e+01|  1.8302e+01|   -8.728917|  1.9830e-05|    0.125430|
|        2460|  9.4436e+00|  9.4436e+00|   -8.732761|  1.9200e-05|    0.125443|
|        2470|  4.0606e+01|  4.0606e+01|   -8.735555|  1.8655e-05|    0.125457|
|        2480|  4.0606e+01|  4.0606e+01|   -8.741820|  1.8455e-05|    0.125483|
|        2490|  4.0606e+01|  4.0606e+01|   -8.749482|  1.8253e-05|    0.125508|
|        2500|  4.0606e+01|  4.0606e+01|   -8.756462|  1.8049e-05|    0.125533|
|        2510|  4.0606e+01|  4.0606e+01|   -8.762762|  1.7859e-05|    0.125558|
|        2520|  4.0606e+01|  4.0606e+01|   -8.769128|  1.7679e-05|    0.125583|
|        2530|  4.0606e+01|  4.0606e+01|   -8.775020|  1.8182e-05|    0.125609|
|        2540|  4.0606e+01|  4.0606e+01|   -8.780625|  1.8538e-05|    0.125634|
|        2550|  4.0606e+01|  4.0606e+01|   -8.786217|  1.8724e-05|    0.125659|
|        2560|  4.0606e+01|  4.0606e+01|   -8.791474|  1.8579e-05|    0.125684|
|        2570|  4.0606e+01|  4.0606e+01|   -8.796365|  1.8440e-05|    0.125708|
|        2580|  4.0606e+01|  4.0606e+01|   -8.801202|  1.8299e-05|    0.125733|
|        2590|  4.0606e+01|  4.0606e+01|   -8.806214|  1.8160e-05|    0.125758|
|        2600|  4.0606e+01|  4.0606e+01|   -8.811406|  1.8030e-05|    0.125782|
+-----------------------------------------------------------------------+
|        File Writing Summary       |              Filename             |
+-----------------------------------------------------------------------+
|SU2 binary restart                 |restart_flow_aoa15.dat             |
|Paraview                           |flow_aoa15.vtu                     |
|Paraview surface                   |surface_flow_aoa15.vtu             |
+-----------------------------------------------------------------------+
+-----------------------------------------------------------------------------+
|  Inner_Iter|     Min CFL|     Max CFL|      rms[P]|  Cauchy[CD]|          CD|
+-----------------------------------------------------------------------------+
|        2610|  4.0606e+01|  4.0606e+01|   -8.816705|  1.7899e-05|    0.125807|
|        2620|  4.8727e+00|  4.8727e+00|   -8.822000|  1.8273e-05|    0.125829|
|        2630|  3.0170e+01|  3.0170e+01|   -8.827023|  1.8081e-05|    0.125837|
|        2640|  1.5567e+01|  1.5567e+01|   -8.829349|  1.7896e-05|    0.125847|
|        2650|  3.8736e+01|  3.8736e+01|   -8.830168|  1.7617e-05|    0.125865|
|        2660|  3.8736e+01|  3.8736e+01|   -8.835231|  1.7496e-05|    0.125888|
|        2670|  3.8736e+01|  3.8736e+01|   -8.841196|  1.7373e-05|    0.125911|
|        2680|  3.8736e+01|  3.8736e+01|   -8.847509|  1.7241e-05|    0.125934|
|        2690|  3.8736e+01|  3.8736e+01|   -8.853920|  1.7114e-05|    0.125958|
|        2700|  3.8736e+01|  3.8736e+01|   -8.860654|  1.7528e-05|    0.125981|
|        2710|  3.8736e+01|  3.8736e+01|   -8.867458|  1.7844e-05|    0.126003|
|        2720|  3.8736e+01|  3.8736e+01|   -8.874155|  1.8095e-05|    0.126026|
|        2730|  3.8736e+01|  3.8736e+01|   -8.880980|  1.8007e-05|    0.126049|
|        2740|  3.8736e+01|  3.8736e+01|   -8.887928|  1.7918e-05|    0.126071|
|        2750|  3.8736e+01|  3.8736e+01|   -8.894720|  1.7831e-05|    0.126094|
|        2760|  3.8736e+01|  3.8736e+01|   -8.901365|  1.7737e-05|    0.126116|
|        2770|  3.8736e+01|  3.8736e+01|   -8.908065|  1.7640e-05|    0.126138|
|        2780|  3.8736e+01|  3.8736e+01|   -8.914764|  1.7542e-05|    0.126161|
|        2790|  3.8736e+01|  3.8736e+01|   -8.921287|  1.7444e-05|    0.126183|
|        2800|  3.8736e+01|  3.8736e+01|   -8.927431|  1.7348e-05|    0.126205|
+-----------------------------------------------------------------------+
|        File Writing Summary       |              Filename             |
+-----------------------------------------------------------------------+
|SU2 binary restart                 |restart_flow_aoa15.dat             |
|Paraview                           |flow_aoa15.vtu                     |
|Paraview surface                   |surface_flow_aoa15.vtu             |
+-----------------------------------------------------------------------+
+-----------------------------------------------------------------------------+
|  Inner_Iter|     Min CFL|     Max CFL|      rms[P]|  Cauchy[CD]|          CD|
+-----------------------------------------------------------------------------+
|        2810|  3.8736e+01|  3.8736e+01|   -8.933046|  1.7254e-05|    0.126227|
|        2820|  3.8736e+01|  3.8736e+01|   -8.938259|  1.7163e-05|    0.126249|
|        2830|  3.8736e+01|  3.8736e+01|   -8.943261|  1.7071e-05|    0.126271|
|        2840|  3.8736e+01|  3.8736e+01|   -8.948077|  1.6973e-05|    0.126292|
|        2850|  3.8736e+01|  3.8736e+01|   -8.952619|  1.6872e-05|    0.126314|
|        2860|  3.8736e+01|  3.8736e+01|   -8.956826|  1.6772e-05|    0.126336|
|        2870|  3.8736e+01|  3.8736e+01|   -8.960722|  1.6745e-05|    0.126357|
|        2880|  3.8736e+01|  3.8736e+01|   -8.964337|  1.7181e-05|    0.126379|
|        2890|  3.8736e+01|  3.8736e+01|   -8.967652|  1.7541e-05|    0.126400|
|        2900|  3.8736e+01|  3.8736e+01|   -8.970651|  1.7631e-05|    0.126421|
|        2910|  3.8736e+01|  3.8736e+01|   -8.973393|  1.7568e-05|    0.126443|
|        2920|  3.8736e+01|  3.8736e+01|   -8.975986|  1.7505e-05|    0.126464|
|        2930|  3.8736e+01|  3.8736e+01|   -8.978513|  1.7440e-05|    0.126485|
|        2940|  3.8736e+01|  3.8736e+01|   -8.980989|  1.7372e-05|    0.126506|
|        2950|  3.8736e+01|  3.8736e+01|   -8.983382|  1.7304e-05|    0.126527|
|        2960|  3.8736e+01|  3.8736e+01|   -8.985664|  1.7236e-05|    0.126548|
|        2970|  3.8736e+01|  3.8736e+01|   -8.987842|  1.7169e-05|    0.126568|
|        2980|  3.8736e+01|  3.8736e+01|   -8.989962|  1.7103e-05|    0.126589|
|        2990|  3.8736e+01|  3.8736e+01|   -8.992080|  1.7039e-05|    0.126610|
|        3000|  3.8736e+01|  3.8736e+01|   -8.994246|  1.6977e-05|    0.126630|
+-----------------------------------------------------------------------+
|        File Writing Summary       |              Filename             |
+-----------------------------------------------------------------------+
|SU2 binary restart                 |restart_flow_aoa15.dat             |
|Paraview                           |flow_aoa15.vtu                     |
|Paraview surface                   |surface_flow_aoa15.vtu             |
+-----------------------------------------------------------------------+
+-----------------------------------------------------------------------------+
|  Inner_Iter|     Min CFL|     Max CFL|      rms[P]|  Cauchy[CD]|          CD|
+-----------------------------------------------------------------------------+
|        3010|  1.9987e+01|  1.9987e+01|   -8.998673|  1.6469e-05|    0.126636|
|        3020|  1.0313e+01|  1.0313e+01|   -8.999786|  1.6061e-05|    0.126646|
|        3030|  5.3212e+00|  5.3212e+00|   -8.997645|  1.5716e-05|    0.126657|
|        3040|  3.2948e+01|  3.2948e+01|   -9.001919|  1.5240e-05|    0.126665|
|        3050|  1.7000e+01|  1.7000e+01|   -9.003066|  1.4766e-05|    0.126672|
|        3060|  8.7718e+00|  8.7718e+00|   -9.003402|  1.4385e-05|    0.126682|
|        3070|  3.7717e+01|  3.7717e+01|   -9.002998|  1.4053e-05|    0.126693|
|        3080|  3.7717e+01|  3.7717e+01|   -9.003902|  1.3980e-05|    0.126713|
|        3090|  3.7717e+01|  3.7717e+01|   -9.006503|  1.3913e-05|    0.126733|
|        3100|  3.7717e+01|  3.7717e+01|   -9.009256|  1.3844e-05|    0.126752|
|        3110|  3.7717e+01|  3.7717e+01|   -9.012090|  1.3775e-05|    0.126772|
|        3120|  3.7717e+01|  3.7717e+01|   -9.014933|  1.3706e-05|    0.126791|
|        3130|  3.7717e+01|  3.7717e+01|   -9.017680|  1.3640e-05|    0.126810|
|        3140|  3.7717e+01|  3.7717e+01|   -9.020439|  1.3575e-05|    0.126830|
|        3150|  3.7717e+01|  3.7717e+01|   -9.023476|  1.3510e-05|    0.126849|
|        3160|  3.7717e+01|  3.7717e+01|   -9.026702|  1.3443e-05|    0.126868|
|        3170|  3.7717e+01|  3.7717e+01|   -9.029943|  1.3373e-05|    0.126887|
|        3180|  3.7717e+01|  3.7717e+01|   -9.033187|  1.3303e-05|    0.126906|
|        3190|  3.7717e+01|  3.7717e+01|   -9.036486|  1.3236e-05|    0.126925|
|        3200|  3.7717e+01|  3.7717e+01|   -9.039874|  1.3172e-05|    0.126944|
+-----------------------------------------------------------------------+
|        File Writing Summary       |              Filename             |
+-----------------------------------------------------------------------+
|SU2 binary restart                 |restart_flow_aoa15.dat             |
|Paraview                           |flow_aoa15.vtu                     |
|Paraview surface                   |surface_flow_aoa15.vtu             |
+-----------------------------------------------------------------------+
+-----------------------------------------------------------------------------+
|  Inner_Iter|     Min CFL|     Max CFL|      rms[P]|  Cauchy[CD]|          CD|
+-----------------------------------------------------------------------------+
|        3210|  3.7717e+01|  3.7717e+01|   -9.043323|  1.3107e-05|    0.126963|
|        3220|  3.7717e+01|  3.7717e+01|   -9.046807|  1.3042e-05|    0.126982|
|        3230|  3.7717e+01|  3.7717e+01|   -9.050304|  1.2976e-05|    0.127000|
|        3240|  3.7717e+01|  3.7717e+01|   -9.053797|  1.2910e-05|    0.127019|
|        3250|  3.7717e+01|  3.7717e+01|   -9.057298|  1.2843e-05|    0.127037|
|        3260|  3.7717e+01|  3.7717e+01|   -9.060786|  1.3222e-05|    0.127056|
|        3270|  3.7717e+01|  3.7717e+01|   -9.064247|  1.3501e-05|    0.127074|
|        3280|  3.7717e+01|  3.7717e+01|   -9.067718|  1.3715e-05|    0.127092|
|        3290|  3.7717e+01|  3.7717e+01|   -9.071248|  1.4060e-05|    0.127111|
|        3300|  3.7717e+01|  3.7717e+01|   -9.074810|  1.4405e-05|    0.127129|
|        3310|  3.7717e+01|  3.7717e+01|   -9.078319|  1.4657e-05|    0.127147|
|        3320|  3.7717e+01|  3.7717e+01|   -9.081712|  1.4861e-05|    0.127165|
|        3330|  3.7717e+01|  3.7717e+01|   -9.085015|  1.4806e-05|    0.127183|
|        3340|  3.7717e+01|  3.7717e+01|   -9.088320|  1.4746e-05|    0.127201|
|        3350|  3.7717e+01|  3.7717e+01|   -9.091704|  1.4687e-05|    0.127218|
|        3360|  3.7717e+01|  3.7717e+01|   -9.095165|  1.4628e-05|    0.127236|
|        3370|  3.7717e+01|  3.7717e+01|   -9.098646|  1.4569e-05|    0.127254|
|        3380|  3.7717e+01|  3.7717e+01|   -9.102076|  1.4508e-05|    0.127271|
|        3390|  3.7717e+01|  3.7717e+01|   -9.105409|  1.4446e-05|    0.127289|
|        3400|  3.7717e+01|  3.7717e+01|   -9.108647|  1.4385e-05|    0.127306|
+-----------------------------------------------------------------------+
|        File Writing Summary       |              Filename             |
+-----------------------------------------------------------------------+
|SU2 binary restart                 |restart_flow_aoa15.dat             |
|Paraview                           |flow_aoa15.vtu                     |
|Paraview surface                   |surface_flow_aoa15.vtu             |
+-----------------------------------------------------------------------+
+-----------------------------------------------------------------------------+
|  Inner_Iter|     Min CFL|     Max CFL|      rms[P]|  Cauchy[CD]|          CD|
+-----------------------------------------------------------------------------+
|        3410|  3.7717e+01|  3.7717e+01|   -9.111832|  1.4327e-05|    0.127323|
|        3420|  3.7717e+01|  3.7717e+01|   -9.115014|  1.4271e-05|    0.127341|
|        3430|  3.7717e+01|  3.7717e+01|   -9.118227|  1.4214e-05|    0.127358|
|        3440|  3.7717e+01|  3.7717e+01|   -9.121474|  1.4154e-05|    0.127375|
|        3450|  3.7717e+01|  3.7717e+01|   -9.124735|  1.4092e-05|    0.127392|
|        3460|  3.7717e+01|  3.7717e+01|   -9.127989|  1.4030e-05|    0.127409|
|        3470|  3.7717e+01|  3.7717e+01|   -9.131224|  1.3970e-05|    0.127426|
|        3480|  3.7717e+01|  3.7717e+01|   -9.134436|  1.3910e-05|    0.127443|
|        3490|  3.7717e+01|  3.7717e+01|   -9.137625|  1.3851e-05|    0.127459|
|        3500|  3.7717e+01|  3.7717e+01|   -9.140795|  1.3793e-05|    0.127476|
|        3510|  3.7717e+01|  3.7717e+01|   -9.143947|  1.3734e-05|    0.127493|
|        3520|  3.7717e+01|  3.7717e+01|   -9.147090|  1.3674e-05|    0.127509|
|        3530|  3.7717e+01|  3.7717e+01|   -9.150228|  1.3613e-05|    0.127526|
|        3540|  3.7717e+01|  3.7717e+01|   -9.153363|  1.3552e-05|    0.127542|
|        3550|  3.7717e+01|  3.7717e+01|   -9.156491|  1.3492e-05|    0.127558|
|        3560|  3.7717e+01|  3.7717e+01|   -9.159604|  1.3432e-05|    0.127575|
|        3570|  3.7717e+01|  3.7717e+01|   -9.162694|  1.3373e-05|    0.127591|
|        3580|  3.7717e+01|  3.7717e+01|   -9.165758|  1.3313e-05|    0.127607|
|        3590|  3.7717e+01|  3.7717e+01|   -9.168792|  1.3254e-05|    0.127623|
|        3600|  3.7717e+01|  3.7717e+01|   -9.171799|  1.3194e-05|    0.127639|
+-----------------------------------------------------------------------+
|        File Writing Summary       |              Filename             |
+-----------------------------------------------------------------------+
|SU2 binary restart                 |restart_flow_aoa15.dat             |
|Paraview                           |flow_aoa15.vtu                     |
|Paraview surface                   |surface_flow_aoa15.vtu             |
+-----------------------------------------------------------------------+
+-----------------------------------------------------------------------------+
|  Inner_Iter|     Min CFL|     Max CFL|      rms[P]|  Cauchy[CD]|          CD|
+-----------------------------------------------------------------------------+
|        3610|  3.7717e+01|  3.7717e+01|   -9.174781|  1.3134e-05|    0.127655|
|        3620|  3.7717e+01|  3.7717e+01|   -9.177739|  1.3074e-05|    0.127670|
|        3630|  3.7717e+01|  3.7717e+01|   -9.180672|  1.3015e-05|    0.127686|
|        3640|  3.7717e+01|  3.7717e+01|   -9.183582|  1.2955e-05|    0.127702|
|        3650|  3.7717e+01|  3.7717e+01|   -9.186468|  1.2896e-05|    0.127717|
|        3660|  3.7717e+01|  3.7717e+01|   -9.189330|  1.2838e-05|    0.127733|
|        3670|  3.7717e+01|  3.7717e+01|   -9.192167|  1.2779e-05|    0.127748|
|        3680|  3.7717e+01|  3.7717e+01|   -9.194977|  1.2720e-05|    0.127764|
|        3690|  3.7717e+01|  3.7717e+01|   -9.197761|  1.2661e-05|    0.127779|
|        3700|  3.7717e+01|  3.7717e+01|   -9.200517|  1.2603e-05|    0.127794|
|        3710|  3.7717e+01|  3.7717e+01|   -9.203250|  1.2544e-05|    0.127809|
|        3720|  3.7717e+01|  3.7717e+01|   -9.205961|  1.2485e-05|    0.127824|
|        3730|  3.7717e+01|  3.7717e+01|   -9.208654|  1.2427e-05|    0.127839|
|        3740|  3.7717e+01|  3.7717e+01|   -9.211332|  1.2369e-05|    0.127854|
|        3750|  3.7717e+01|  3.7717e+01|   -9.213996|  1.2310e-05|    0.127869|
|        3760|  3.7717e+01|  3.7717e+01|   -9.216645|  1.2252e-05|    0.127884|
|        3770|  3.7717e+01|  3.7717e+01|   -9.219275|  1.2194e-05|    0.127898|
|        3780|  3.7717e+01|  3.7717e+01|   -9.221886|  1.2136e-05|    0.127913|
|        3790|  3.7717e+01|  3.7717e+01|   -9.224483|  1.2079e-05|    0.127928|
|        3800|  3.7717e+01|  3.7717e+01|   -9.227069|  1.2021e-05|    0.127942|
+-----------------------------------------------------------------------+
|        File Writing Summary       |              Filename             |
+-----------------------------------------------------------------------+
|SU2 binary restart                 |restart_flow_aoa15.dat             |
|Paraview                           |flow_aoa15.vtu                     |
|Paraview surface                   |surface_flow_aoa15.vtu             |
+-----------------------------------------------------------------------+
+-----------------------------------------------------------------------------+
|  Inner_Iter|     Min CFL|     Max CFL|      rms[P]|  Cauchy[CD]|          CD|
+-----------------------------------------------------------------------------+
|        3810|  3.7717e+01|  3.7717e+01|   -9.229645|  1.1964e-05|    0.127957|
|        3820|  3.7717e+01|  3.7717e+01|   -9.232212|  1.1907e-05|    0.127971|
|        3830|  3.7717e+01|  3.7717e+01|   -9.234767|  1.1850e-05|    0.127985|
|        3840|  3.7717e+01|  3.7717e+01|   -9.237309|  1.1794e-05|    0.128000|
|        3850|  3.7717e+01|  3.7717e+01|   -9.239841|  1.1738e-05|    0.128014|
|        3860|  3.7717e+01|  3.7717e+01|   -9.242366|  1.1682e-05|    0.128028|
|        3870|  3.7717e+01|  3.7717e+01|   -9.244887|  1.1626e-05|    0.128042|
|        3880|  3.7717e+01|  3.7717e+01|   -9.247405|  1.1570e-05|    0.128056|
|        3890|  3.7717e+01|  3.7717e+01|   -9.249919|  1.1515e-05|    0.128070|
|        3900|  3.7717e+01|  3.7717e+01|   -9.252430|  1.1460e-05|    0.128084|
|        3910|  3.7717e+01|  3.7717e+01|   -9.254935|  1.1404e-05|    0.128097|
|        3920|  3.7717e+01|  3.7717e+01|   -9.257435|  1.1350e-05|    0.128111|
|        3930|  3.7717e+01|  3.7717e+01|   -9.259931|  1.1295e-05|    0.128125|
|        3940|  3.7717e+01|  3.7717e+01|   -9.262426|  1.1241e-05|    0.128138|
|        3950|  3.7717e+01|  3.7717e+01|   -9.264922|  1.1187e-05|    0.128152|
|        3960|  3.7717e+01|  3.7717e+01|   -9.267422|  1.1133e-05|    0.128165|
|        3970|  3.7717e+01|  3.7717e+01|   -9.269927|  1.1079e-05|    0.128179|
|        3980|  3.7717e+01|  3.7717e+01|   -9.272435|  1.1026e-05|    0.128192|
|        3990|  3.7717e+01|  3.7717e+01|   -9.274947|  1.0973e-05|    0.128205|
|        4000|  3.7717e+01|  3.7717e+01|   -9.277462|  1.0920e-05|    0.128219|
+-----------------------------------------------------------------------+
|        File Writing Summary       |              Filename             |
+-----------------------------------------------------------------------+
|SU2 binary restart                 |restart_flow_aoa15.dat             |
|Paraview                           |flow_aoa15.vtu                     |
|Paraview surface                   |surface_flow_aoa15.vtu             |
+-----------------------------------------------------------------------+
+-----------------------------------------------------------------------------+
|  Inner_Iter|     Min CFL|     Max CFL|      rms[P]|  Cauchy[CD]|          CD|
+-----------------------------------------------------------------------------+
|        4010|  3.7717e+01|  3.7717e+01|   -9.279981|  1.0867e-05|    0.128232|
|        4020|  3.7717e+01|  3.7717e+01|   -9.282504|  1.0814e-05|    0.128245|
|        4030|  3.7717e+01|  3.7717e+01|   -9.285035|  1.0762e-05|    0.128258|
|        4040|  3.7717e+01|  3.7717e+01|   -9.287572|  1.0710e-05|    0.128271|
|        4050|  3.7717e+01|  3.7717e+01|   -9.290117|  1.0658e-05|    0.128284|
|        4060|  3.7717e+01|  3.7717e+01|   -9.292666|  1.0607e-05|    0.128296|
|        4070|  3.7717e+01|  3.7717e+01|   -9.295219|  1.0555e-05|    0.128309|
|        4080|  3.7717e+01|  3.7717e+01|   -9.297775|  1.0504e-05|    0.128322|
|        4090|  3.7717e+01|  3.7717e+01|   -9.300334|  1.0453e-05|    0.128335|
|        4100|  3.7717e+01|  3.7717e+01|   -9.302896|  1.0402e-05|    0.128347|
|        4110|  3.7717e+01|  3.7717e+01|   -9.305459|  1.0352e-05|    0.128360|
|        4120|  3.7717e+01|  3.7717e+01|   -9.308024|  1.0301e-05|    0.128372|
|        4130|  3.7717e+01|  3.7717e+01|   -9.310591|  1.0251e-05|    0.128385|
|        4140|  3.7717e+01|  3.7717e+01|   -9.313159|  1.0201e-05|    0.128397|
|        4150|  3.7717e+01|  3.7717e+01|   -9.315728|  1.0151e-05|    0.128409|
|        4160|  3.7717e+01|  3.7717e+01|   -9.318294|  1.0101e-05|    0.128421|
|        4170|  3.7717e+01|  3.7717e+01|   -9.320856|  1.0052e-05|    0.128434|
|        4180|  3.7717e+01|  3.7717e+01|   -9.323412|  1.0002e-05|    0.128446|
|        4190|  3.7717e+01|  3.7717e+01|   -9.325962|  9.9532e-06|    0.128458|
|        4200|  3.7717e+01|  3.7717e+01|   -9.328505|  9.9044e-06|    0.128470|
+-----------------------------------------------------------------------+
|        File Writing Summary       |              Filename             |
+-----------------------------------------------------------------------+
|SU2 binary restart                 |restart_flow_aoa15.dat             |
|Paraview                           |flow_aoa15.vtu                     |
|Paraview surface                   |surface_flow_aoa15.vtu             |
+-----------------------------------------------------------------------+
+-----------------------------------------------------------------------------+
|  Inner_Iter|     Min CFL|     Max CFL|      rms[P]|  Cauchy[CD]|          CD|
+-----------------------------------------------------------------------------+
|        4210|  3.7717e+01|  3.7717e+01|   -9.331041|  9.8558e-06|    0.128482|
|        4220|  3.7717e+01|  3.7717e+01|   -9.333571|  9.8074e-06|    0.128493|
|        4230|  3.7717e+01|  3.7717e+01|   -9.336095|  9.7591e-06|    0.128505|
|        4240|  3.7717e+01|  3.7717e+01|   -9.338615|  9.7111e-06|    0.128517|
|        4250|  3.7717e+01|  3.7717e+01|   -9.341128|  9.6632e-06|    0.128529|
|        4260|  3.7717e+01|  3.7717e+01|   -9.343634|  9.6156e-06|    0.128540|
|        4270|  3.7717e+01|  3.7717e+01|   -9.346133|  9.5681e-06|    0.128552|
|        4280|  3.7717e+01|  3.7717e+01|   -9.348622|  9.5207e-06|    0.128563|
|        4290|  3.7717e+01|  3.7717e+01|   -9.351103|  9.4736e-06|    0.128575|
|        4300|  3.7717e+01|  3.7717e+01|   -9.353575|  9.4266e-06|    0.128586|
|        4310|  3.7717e+01|  3.7717e+01|   -9.356037|  9.3798e-06|    0.128598|
|        4320|  3.7717e+01|  3.7717e+01|   -9.358489|  9.3332e-06|    0.128609|
|        4330|  3.7717e+01|  3.7717e+01|   -9.360933|  9.2869e-06|    0.128620|
|        4340|  3.7717e+01|  3.7717e+01|   -9.363369|  9.2408e-06|    0.128631|
|        4350|  3.7717e+01|  3.7717e+01|   -9.365800|  9.1949e-06|    0.128643|
|        4360|  3.7717e+01|  3.7717e+01|   -9.368226|  9.1493e-06|    0.128654|
|        4370|  3.7717e+01|  3.7717e+01|   -9.370644|  9.1039e-06|    0.128665|
|        4380|  3.7717e+01|  3.7717e+01|   -9.373056|  9.0587e-06|    0.128676|
|        4390|  3.7717e+01|  3.7717e+01|   -9.375459|  9.0138e-06|    0.128687|
|        4400|  3.7717e+01|  3.7717e+01|   -9.377856|  8.9690e-06|    0.128697|
+-----------------------------------------------------------------------+
|        File Writing Summary       |              Filename             |
+-----------------------------------------------------------------------+
|SU2 binary restart                 |restart_flow_aoa15.dat             |
|Paraview                           |flow_aoa15.vtu                     |
|Paraview surface                   |surface_flow_aoa15.vtu             |
+-----------------------------------------------------------------------+
+-----------------------------------------------------------------------------+
|  Inner_Iter|     Min CFL|     Max CFL|      rms[P]|  Cauchy[CD]|          CD|
+-----------------------------------------------------------------------------+
|        4410|  3.7717e+01|  3.7717e+01|   -9.380248|  8.9245e-06|    0.128708|
|        4420|  3.7717e+01|  3.7717e+01|   -9.382636|  8.8802e-06|    0.128719|
|        4430|  3.7717e+01|  3.7717e+01|   -9.385020|  8.8360e-06|    0.128730|
|        4440|  3.7717e+01|  3.7717e+01|   -9.387397|  8.7920e-06|    0.128740|
|        4450|  3.7717e+01|  3.7717e+01|   -9.389771|  8.7482e-06|    0.128751|
|        4460|  3.7717e+01|  3.7717e+01|   -9.392140|  8.7045e-06|    0.128761|
|        4470|  3.7717e+01|  3.7717e+01|   -9.394506|  8.6610e-06|    0.128772|
|        4480|  3.7717e+01|  3.7717e+01|   -9.396868|  8.6177e-06|    0.128782|
|        4490|  3.7717e+01|  3.7717e+01|   -9.399227|  8.5746e-06|    0.128793|
|        4500|  3.7717e+01|  3.7717e+01|   -9.401584|  8.5317e-06|    0.128803|
|        4510|  3.7717e+01|  3.7717e+01|   -9.403938|  8.4890e-06|    0.128813|
|        4520|  3.7717e+01|  3.7717e+01|   -9.406291|  8.4465e-06|    0.128824|
|        4530|  3.7717e+01|  3.7717e+01|   -9.408642|  8.4042e-06|    0.128834|
|        4540|  3.7717e+01|  3.7717e+01|   -9.410994|  8.3621e-06|    0.128844|
|        4550|  3.7717e+01|  3.7717e+01|   -9.413347|  8.3202e-06|    0.128854|
|        4560|  3.7717e+01|  3.7717e+01|   -9.415699|  8.2785e-06|    0.128864|
|        4570|  3.7717e+01|  3.7717e+01|   -9.418049|  8.2370e-06|    0.128874|
|        4580|  3.7717e+01|  3.7717e+01|   -9.420397|  8.1957e-06|    0.128884|
|        4590|  3.7717e+01|  3.7717e+01|   -9.422743|  8.1544e-06|    0.128894|
|        4600|  3.7717e+01|  3.7717e+01|   -9.425088|  8.1134e-06|    0.128904|
+-----------------------------------------------------------------------+
|        File Writing Summary       |              Filename             |
+-----------------------------------------------------------------------+
|SU2 binary restart                 |restart_flow_aoa15.dat             |
|Paraview                           |flow_aoa15.vtu                     |
|Paraview surface                   |surface_flow_aoa15.vtu             |
+-----------------------------------------------------------------------+
+-----------------------------------------------------------------------------+
|  Inner_Iter|     Min CFL|     Max CFL|      rms[P]|  Cauchy[CD]|          CD|
+-----------------------------------------------------------------------------+
|        4610|  3.7717e+01|  3.7717e+01|   -9.427434|  8.0725e-06|    0.128913|
|        4620|  3.7717e+01|  3.7717e+01|   -9.429783|  8.0318e-06|    0.128923|
|        4630|  3.7717e+01|  3.7717e+01|   -9.432137|  7.9914e-06|    0.128933|
|        4640|  3.7717e+01|  3.7717e+01|   -9.434494|  7.9512e-06|    0.128943|
|        4650|  3.7717e+01|  3.7717e+01|   -9.436851|  7.9112e-06|    0.128952|
|        4660|  3.7717e+01|  3.7717e+01|   -9.439208|  7.8715e-06|    0.128962|
|        4670|  3.7717e+01|  3.7717e+01|   -9.441563|  7.8320e-06|    0.128971|
|        4680|  3.7717e+01|  3.7717e+01|   -9.443916|  7.7928e-06|    0.128981|
|        4690|  3.7717e+01|  3.7717e+01|   -9.446266|  7.7539e-06|    0.128990|
|        4700|  3.7717e+01|  3.7717e+01|   -9.448614|  7.7151e-06|    0.128999|
|        4710|  3.7717e+01|  3.7717e+01|   -9.450960|  7.6766e-06|    0.129009|
|        4720|  3.7717e+01|  3.7717e+01|   -9.453305|  7.6382e-06|    0.129018|
|        4730|  3.7717e+01|  3.7717e+01|   -9.455652|  7.6001e-06|    0.129027|
|        4740|  3.7717e+01|  3.7717e+01|   -9.457999|  7.5622e-06|    0.129036|
|        4750|  3.7717e+01|  3.7717e+01|   -9.460347|  7.5244e-06|    0.129046|
|        4760|  3.7717e+01|  3.7717e+01|   -9.462697|  7.4869e-06|    0.129055|
|        4770|  3.7717e+01|  3.7717e+01|   -9.465046|  7.4495e-06|    0.129064|
|        4780|  3.7717e+01|  3.7717e+01|   -9.467392|  7.4123e-06|    0.129073|
|        4790|  3.7717e+01|  3.7717e+01|   -9.469737|  7.3753e-06|    0.129082|
|        4800|  3.7717e+01|  3.7717e+01|   -9.472081|  7.3385e-06|    0.129091|
+-----------------------------------------------------------------------+
|        File Writing Summary       |              Filename             |
+-----------------------------------------------------------------------+
|SU2 binary restart                 |restart_flow_aoa15.dat             |
|Paraview                           |flow_aoa15.vtu                     |
|Paraview surface                   |surface_flow_aoa15.vtu             |
+-----------------------------------------------------------------------+
+-----------------------------------------------------------------------------+
|  Inner_Iter|     Min CFL|     Max CFL|      rms[P]|  Cauchy[CD]|          CD|
+-----------------------------------------------------------------------------+
|        4810|  3.7717e+01|  3.7717e+01|   -9.474423|  7.3019e-06|    0.129100|
|        4820|  3.7717e+01|  3.7717e+01|   -9.476763|  7.2655e-06|    0.129108|
|        4830|  3.7717e+01|  3.7717e+01|   -9.479100|  7.2292e-06|    0.129117|
|        4840|  3.7717e+01|  3.7717e+01|   -9.481434|  7.1932e-06|    0.129126|
|        4850|  3.7717e+01|  3.7717e+01|   -9.483765|  7.1574e-06|    0.129135|
|        4860|  3.7717e+01|  3.7717e+01|   -9.486095|  7.1217e-06|    0.129143|
|        4870|  3.7717e+01|  3.7717e+01|   -9.488425|  7.0863e-06|    0.129152|
|        4880|  3.7717e+01|  3.7717e+01|   -9.490755|  7.0509e-06|    0.129160|
|        4890|  3.7717e+01|  3.7717e+01|   -9.493085|  7.0157e-06|    0.129169|
|        4900|  3.7717e+01|  3.7717e+01|   -9.495418|  6.9806e-06|    0.129177|
|        4910|  3.7717e+01|  3.7717e+01|   -9.497750|  6.9457e-06|    0.129186|
|        4920|  3.7717e+01|  3.7717e+01|   -9.500082|  6.9109e-06|    0.129194|
|        4930|  3.7717e+01|  3.7717e+01|   -9.502412|  6.8763e-06|    0.129203|
|        4940|  3.7717e+01|  3.7717e+01|   -9.504737|  6.8418e-06|    0.129211|
|        4950|  3.7717e+01|  3.7717e+01|   -9.507059|  6.8075e-06|    0.129219|
|        4960|  3.7717e+01|  3.7717e+01|   -9.509379|  6.7733e-06|    0.129227|
|        4970|  3.7717e+01|  3.7717e+01|   -9.511698|  6.7394e-06|    0.129236|
|        4980|  3.7717e+01|  3.7717e+01|   -9.514017|  6.7056e-06|    0.129244|
|        4990|  3.7717e+01|  3.7717e+01|   -9.516337|  6.6720e-06|    0.129252|
|        5000|  3.7717e+01|  3.7717e+01|   -9.518658|  6.6385e-06|    0.129260|
+-----------------------------------------------------------------------+
|        File Writing Summary       |              Filename             |
+-----------------------------------------------------------------------+
|SU2 binary restart                 |restart_flow_aoa15.dat             |
|Paraview                           |flow_aoa15.vtu                     |
|Paraview surface                   |surface_flow_aoa15.vtu             |
+-----------------------------------------------------------------------+
+-----------------------------------------------------------------------------+
|  Inner_Iter|     Min CFL|     Max CFL|      rms[P]|  Cauchy[CD]|          CD|
+-----------------------------------------------------------------------------+
|        5010|  3.7717e+01|  3.7717e+01|   -9.520980|  6.6051e-06|    0.129268|
|        5020|  3.7717e+01|  3.7717e+01|   -9.523303|  6.5720e-06|    0.129276|
|        5030|  3.7717e+01|  3.7717e+01|   -9.525625|  6.5389e-06|    0.129284|
|        5040|  3.7717e+01|  3.7717e+01|   -9.527945|  6.5060e-06|    0.129292|
|        5050|  3.7717e+01|  3.7717e+01|   -9.530262|  6.4733e-06|    0.129300|
|        5060|  3.7717e+01|  3.7717e+01|   -9.532575|  6.4407e-06|    0.129308|
|        5070|  3.7717e+01|  3.7717e+01|   -9.534887|  6.4083e-06|    0.129315|
|        5080|  3.7717e+01|  3.7717e+01|   -9.537200|  6.3760e-06|    0.129323|
|        5090|  3.7717e+01|  3.7717e+01|   -9.539512|  6.3439e-06|    0.129331|
|        5100|  3.7717e+01|  3.7717e+01|   -9.541825|  6.3120e-06|    0.129339|
|        5110|  3.7717e+01|  3.7717e+01|   -9.544140|  6.2802e-06|    0.129346|
|        5120|  3.7717e+01|  3.7717e+01|   -9.546455|  6.2486e-06|    0.129354|
|        5130|  3.7717e+01|  3.7717e+01|   -9.548770|  6.2172e-06|    0.129361|
|        5140|  3.7717e+01|  3.7717e+01|   -9.551085|  6.1859e-06|    0.129369|
|        5150|  3.7717e+01|  3.7717e+01|   -9.553398|  6.1548e-06|    0.129376|
|        5160|  3.7717e+01|  3.7717e+01|   -9.555708|  6.1238e-06|    0.129384|
|        5170|  3.7717e+01|  3.7717e+01|   -9.558017|  6.0929e-06|    0.129391|
|        5180|  3.7717e+01|  3.7717e+01|   -9.560324|  6.0621e-06|    0.129399|
|        5190|  3.7717e+01|  3.7717e+01|   -9.562629|  6.0316e-06|    0.129406|
|        5200|  3.7717e+01|  3.7717e+01|   -9.564934|  6.0011e-06|    0.129413|
+-----------------------------------------------------------------------+
|        File Writing Summary       |              Filename             |
+-----------------------------------------------------------------------+
|SU2 binary restart                 |restart_flow_aoa15.dat             |
|Paraview                           |flow_aoa15.vtu                     |
|Paraview surface                   |surface_flow_aoa15.vtu             |
+-----------------------------------------------------------------------+
+-----------------------------------------------------------------------------+
|  Inner_Iter|     Min CFL|     Max CFL|      rms[P]|  Cauchy[CD]|          CD|
+-----------------------------------------------------------------------------+
|        5210|  3.7717e+01|  3.7717e+01|   -9.567238|  5.9709e-06|    0.129420|
|        5220|  3.7717e+01|  3.7717e+01|   -9.569542|  5.9407e-06|    0.129428|
|        5230|  3.7717e+01|  3.7717e+01|   -9.571845|  5.9108e-06|    0.129435|
|        5240|  3.7717e+01|  3.7717e+01|   -9.574146|  5.8809e-06|    0.129442|
|        5250|  3.7717e+01|  3.7717e+01|   -9.576446|  5.8512e-06|    0.129449|
|        5260|  3.7717e+01|  3.7717e+01|   -9.578744|  5.8216e-06|    0.129456|
|        5270|  3.7717e+01|  3.7717e+01|   -9.581040|  5.7922e-06|    0.129463|
|        5280|  3.7717e+01|  3.7717e+01|   -9.583335|  5.7629e-06|    0.129470|
|        5290|  3.7717e+01|  3.7717e+01|   -9.585628|  5.7338e-06|    0.129477|
|        5300|  3.7717e+01|  3.7717e+01|   -9.587919|  5.7048e-06|    0.129484|
|        5310|  3.7717e+01|  3.7717e+01|   -9.590208|  5.6760e-06|    0.129491|
|        5320|  3.7717e+01|  3.7717e+01|   -9.592496|  5.6474e-06|    0.129498|
|        5330|  3.7717e+01|  3.7717e+01|   -9.594782|  5.6189e-06|    0.129505|
|        5340|  3.7717e+01|  3.7717e+01|   -9.597068|  5.5905e-06|    0.129512|
|        5350|  3.7717e+01|  3.7717e+01|   -9.599354|  5.5623e-06|    0.129518|
|        5360|  3.7717e+01|  3.7717e+01|   -9.601640|  5.5342e-06|    0.129525|
|        5370|  3.7717e+01|  3.7717e+01|   -9.603927|  5.5062e-06|    0.129532|
|        5380|  3.7717e+01|  3.7717e+01|   -9.606213|  5.4784e-06|    0.129539|
|        5390|  3.7717e+01|  3.7717e+01|   -9.608495|  5.4506e-06|    0.129545|
|        5400|  3.7717e+01|  3.7717e+01|   -9.610774|  5.4231e-06|    0.129552|
+-----------------------------------------------------------------------+
|        File Writing Summary       |              Filename             |
+-----------------------------------------------------------------------+
|SU2 binary restart                 |restart_flow_aoa15.dat             |
|Paraview                           |flow_aoa15.vtu                     |
|Paraview surface                   |surface_flow_aoa15.vtu             |
+-----------------------------------------------------------------------+
+-----------------------------------------------------------------------------+
|  Inner_Iter|     Min CFL|     Max CFL|      rms[P]|  Cauchy[CD]|          CD|
+-----------------------------------------------------------------------------+
|        5410|  3.7717e+01|  3.7717e+01|   -9.613051|  5.3957e-06|    0.129558|
|        5420|  3.7717e+01|  3.7717e+01|   -9.615328|  5.3685e-06|    0.129565|
|        5430|  3.7717e+01|  3.7717e+01|   -9.617604|  5.3414e-06|    0.129571|
|        5440|  3.7717e+01|  3.7717e+01|   -9.619880|  5.3144e-06|    0.129578|
|        5450|  3.7717e+01|  3.7717e+01|   -9.622156|  5.2876e-06|    0.129584|
|        5460|  3.7717e+01|  3.7717e+01|   -9.624433|  5.2610e-06|    0.129591|
|        5470|  3.7717e+01|  3.7717e+01|   -9.626710|  5.2345e-06|    0.129597|
|        5480|  3.7717e+01|  3.7717e+01|   -9.628986|  5.2081e-06|    0.129604|
|        5490|  3.7717e+01|  3.7717e+01|   -9.631260|  5.1819e-06|    0.129610|
|        5500|  3.7717e+01|  3.7717e+01|   -9.633533|  5.1558e-06|    0.129616|
|        5510|  3.7717e+01|  3.7717e+01|   -9.635804|  5.1298e-06|    0.129622|
|        5520|  3.7717e+01|  3.7717e+01|   -9.638075|  5.1040e-06|    0.129629|
|        5530|  3.7717e+01|  3.7717e+01|   -9.640346|  5.0784e-06|    0.129635|
|        5540|  3.7717e+01|  3.7717e+01|   -9.642617|  5.0528e-06|    0.129641|
|        5550|  3.7717e+01|  3.7717e+01|   -9.644889|  5.0274e-06|    0.129647|
|        5560|  3.7717e+01|  3.7717e+01|   -9.647160|  5.0021e-06|    0.129653|
|        5570|  3.7717e+01|  3.7717e+01|   -9.649432|  4.9769e-06|    0.129659|
|        5580|  3.7717e+01|  3.7717e+01|   -9.651702|  4.9518e-06|    0.129665|
|        5590|  3.7717e+01|  3.7717e+01|   -9.653972|  4.9269e-06|    0.129671|
|        5600|  3.7717e+01|  3.7717e+01|   -9.656241|  4.9021e-06|    0.129677|
+-----------------------------------------------------------------------+
|        File Writing Summary       |              Filename             |
+-----------------------------------------------------------------------+
|SU2 binary restart                 |restart_flow_aoa15.dat             |
|Paraview                           |flow_aoa15.vtu                     |
|Paraview surface                   |surface_flow_aoa15.vtu             |
+-----------------------------------------------------------------------+
+-----------------------------------------------------------------------------+
|  Inner_Iter|     Min CFL|     Max CFL|      rms[P]|  Cauchy[CD]|          CD|
+-----------------------------------------------------------------------------+
|        5610|  3.7717e+01|  3.7717e+01|   -9.658510|  4.8774e-06|    0.129683|
|        5620|  3.7717e+01|  3.7717e+01|   -9.660779|  4.8528e-06|    0.129689|
|        5630|  3.7717e+01|  3.7717e+01|   -9.663048|  4.8283e-06|    0.129695|
|        5640|  3.7717e+01|  3.7717e+01|   -9.665317|  4.8039e-06|    0.129701|
|        5650|  3.7717e+01|  3.7717e+01|   -9.667585|  4.7797e-06|    0.129707|
|        5660|  3.7717e+01|  3.7717e+01|   -9.669854|  4.7555e-06|    0.129713|
|        5670|  3.7717e+01|  3.7717e+01|   -9.672122|  4.7315e-06|    0.129718|
|        5680|  3.7717e+01|  3.7717e+01|   -9.674390|  4.7075e-06|    0.129724|
|        5690|  3.7717e+01|  3.7717e+01|   -9.676660|  4.6837e-06|    0.129730|
|        5700|  3.7717e+01|  3.7717e+01|   -9.678930|  4.6600e-06|    0.129735|
|        5710|  3.7717e+01|  3.7717e+01|   -9.681200|  4.6364e-06|    0.129741|
|        5720|  3.7717e+01|  3.7717e+01|   -9.683469|  4.6129e-06|    0.129747|
|        5730|  3.7717e+01|  3.7717e+01|   -9.685737|  4.5895e-06|    0.129752|
|        5740|  3.7717e+01|  3.7717e+01|   -9.688005|  4.5662e-06|    0.129758|
|        5750|  3.7717e+01|  3.7717e+01|   -9.690274|  4.5430e-06|    0.129763|
|        5760|  3.7717e+01|  3.7717e+01|   -9.692542|  4.5199e-06|    0.129769|
|        5770|  3.7717e+01|  3.7717e+01|   -9.694811|  4.4970e-06|    0.129774|
[...]
|        File Writing Summary       |              Filename             |
+-----------------------------------------------------------------------+
|SU2 binary restart                 |restart_flow_aoa15.dat             |
|Paraview                           |flow_aoa15.vtu                     |
|Paraview surface                   |surface_flow_aoa15.vtu             |
+-----------------------------------------------------------------------+
+-----------------------------------------------------------------------------+
|  Inner_Iter|     Min CFL|     Max CFL|      rms[P]|  Cauchy[CD]|          CD|
+-----------------------------------------------------------------------------+
|        7210|  3.7717e+01|  3.7717e+01|  -10.018016|  2.1649e-06|    0.130334|
|        7220|  3.7717e+01|  3.7717e+01|  -10.020265|  2.1539e-06|    0.130337|
|        7230|  3.7717e+01|  3.7717e+01|  -10.022514|  2.1430e-06|    0.130340|
|        7240|  3.7717e+01|  3.7717e+01|  -10.024762|  2.1322e-06|    0.130342|
|        7250|  3.7717e+01|  3.7717e+01|  -10.027010|  2.1214e-06|    0.130345|
|        7260|  3.7717e+01|  3.7717e+01|  -10.029257|  2.1106e-06|    0.130347|
|        7270|  3.7717e+01|  3.7717e+01|  -10.031505|  2.0999e-06|    0.130350|
|        7280|  3.7717e+01|  3.7717e+01|  -10.033751|  2.0893e-06|    0.130352|
|        7290|  3.7717e+01|  3.7717e+01|  -10.035997|  2.0787e-06|    0.130355|
|        7300|  3.7717e+01|  3.7717e+01|  -10.038242|  2.0682e-06|    0.130358|
|        7310|  3.7717e+01|  3.7717e+01|  -10.040487|  2.0577e-06|    0.130360|
|        7320|  3.7717e+01|  3.7717e+01|  -10.042731|  2.0472e-06|    0.130363|
|        7330|  3.7717e+01|  3.7717e+01|  -10.044975|  2.0369e-06|    0.130365|
|        7340|  3.7717e+01|  3.7717e+01|  -10.047218|  2.0265e-06|    0.130368|
|        7350|  3.7717e+01|  3.7717e+01|  -10.049460|  2.0162e-06|    0.130370|
|        7360|  3.7717e+01|  3.7717e+01|  -10.051702|  2.0060e-06|    0.130372|
|        7370|  3.7717e+01|  3.7717e+01|  -10.053943|  1.9958e-06|    0.130375|
|        7380|  3.7717e+01|  3.7717e+01|  -10.056183|  1.9857e-06|    0.130377|
|        7390|  3.7717e+01|  3.7717e+01|  -10.058421|  1.9756e-06|    0.130380|
|        7400|  3.7717e+01|  3.7717e+01|  -10.060659|  1.9655e-06|    0.130382|
+-----------------------------------------------------------------------+
|        File Writing Summary       |              Filename             |
+-----------------------------------------------------------------------+
|SU2 binary restart                 |restart_flow_aoa15.dat             |
|Paraview                           |flow_aoa15.vtu                     |
|Paraview surface                   |surface_flow_aoa15.vtu             |
+-----------------------------------------------------------------------+
+-----------------------------------------------------------------------------+
|  Inner_Iter|     Min CFL|     Max CFL|      rms[P]|  Cauchy[CD]|          CD|
+-----------------------------------------------------------------------------+
|        7410|  3.7717e+01|  3.7717e+01|  -10.062896|  1.9555e-06|    0.130385|
|        7420|  3.7717e+01|  3.7717e+01|  -10.065132|  1.9456e-06|    0.130387|
|        7430|  3.7717e+01|  3.7717e+01|  -10.067367|  1.9357e-06|    0.130389|
|        7440|  3.7717e+01|  3.7717e+01|  -10.069601|  1.9259e-06|    0.130392|
|        7450|  3.7717e+01|  3.7717e+01|  -10.071835|  1.9161e-06|    0.130394|
|        7460|  3.7717e+01|  3.7717e+01|  -10.074067|  1.9063e-06|    0.130396|
|        7470|  3.7717e+01|  3.7717e+01|  -10.076299|  1.8966e-06|    0.130399|
|        7480|  3.7717e+01|  3.7717e+01|  -10.078529|  1.8870e-06|    0.130401|
|        7490|  3.7717e+01|  3.7717e+01|  -10.080759|  1.8774e-06|    0.130403|
|        7500|  3.7717e+01|  3.7717e+01|  -10.082987|  1.8678e-06|    0.130406|
|        7510|  3.7717e+01|  3.7717e+01|  -10.085215|  1.8583e-06|    0.130408|
|        7520|  3.7717e+01|  3.7717e+01|  -10.087442|  1.8489e-06|    0.130410|
|        7530|  3.7717e+01|  3.7717e+01|  -10.089668|  1.8395e-06|    0.130412|
|        7540|  3.7717e+01|  3.7717e+01|  -10.091893|  1.8301e-06|    0.130415|
|        7550|  3.7717e+01|  3.7717e+01|  -10.094117|  1.8208e-06|    0.130417|
|        7560|  3.7717e+01|  3.7717e+01|  -10.096341|  1.8116e-06|    0.130419|
|        7570|  3.7717e+01|  3.7717e+01|  -10.098564|  1.8023e-06|    0.130421|
|        7580|  3.7717e+01|  3.7717e+01|  -10.100785|  1.7932e-06|    0.130424|
|        7590|  3.7717e+01|  3.7717e+01|  -10.103006|  1.7840e-06|    0.130426|
|        7600|  3.7717e+01|  3.7717e+01|  -10.105225|  1.7750e-06|    0.130428|
+-----------------------------------------------------------------------+
|        File Writing Summary       |              Filename             |
+-----------------------------------------------------------------------+
|SU2 binary restart                 |restart_flow_aoa15.dat             |
|Paraview                           |flow_aoa15.vtu                     |
|Paraview surface                   |surface_flow_aoa15.vtu             |
+-----------------------------------------------------------------------+
+-----------------------------------------------------------------------------+
|  Inner_Iter|     Min CFL|     Max CFL|      rms[P]|  Cauchy[CD]|          CD|
+-----------------------------------------------------------------------------+
|        7610|  3.7717e+01|  3.7717e+01|  -10.107444|  1.7659e-06|    0.130430|
|        7620|  3.7717e+01|  3.7717e+01|  -10.109663|  1.7569e-06|    0.130432|
|        7630|  3.7717e+01|  3.7717e+01|  -10.111881|  1.7480e-06|    0.130434|
|        7640|  3.7717e+01|  3.7717e+01|  -10.114099|  1.7391e-06|    0.130436|
|        7650|  3.7717e+01|  3.7717e+01|  -10.116316|  1.7302e-06|    0.130439|
|        7660|  3.7717e+01|  3.7717e+01|  -10.118533|  1.7214e-06|    0.130441|
|        7670|  3.7717e+01|  3.7717e+01|  -10.120749|  1.7126e-06|    0.130443|
|        7680|  3.7717e+01|  3.7717e+01|  -10.122964|  1.7039e-06|    0.130445|
|        7690|  3.7717e+01|  3.7717e+01|  -10.125178|  1.6952e-06|    0.130447|
|        7700|  3.7717e+01|  3.7717e+01|  -10.127392|  1.6866e-06|    0.130449|
|        7710|  3.7717e+01|  3.7717e+01|  -10.129606|  1.6780e-06|    0.130451|
|        7720|  3.7717e+01|  3.7717e+01|  -10.131819|  1.6694e-06|    0.130453|
|        7730|  3.7717e+01|  3.7717e+01|  -10.134032|  1.6609e-06|    0.130455|
|        7740|  3.7717e+01|  3.7717e+01|  -10.136244|  1.6524e-06|    0.130457|
|        7750|  3.7717e+01|  3.7717e+01|  -10.138456|  1.6440e-06|    0.130459|
|        7760|  3.7717e+01|  3.7717e+01|  -10.140668|  1.6356e-06|    0.130461|
|        7770|  3.7717e+01|  3.7717e+01|  -10.142879|  1.6272e-06|    0.130463|
|        7780|  3.7717e+01|  3.7717e+01|  -10.145091|  1.6189e-06|    0.130465|
|        7790|  3.7717e+01|  3.7717e+01|  -10.147302|  1.6106e-06|    0.130467|
|        7800|  3.7717e+01|  3.7717e+01|  -10.149513|  1.6024e-06|    0.130469|
+-----------------------------------------------------------------------+
|        File Writing Summary       |              Filename             |
+-----------------------------------------------------------------------+
|SU2 binary restart                 |restart_flow_aoa15.dat             |
|Paraview                           |flow_aoa15.vtu                     |
|Paraview surface                   |surface_flow_aoa15.vtu             |
+-----------------------------------------------------------------------+
+-----------------------------------------------------------------------------+
|  Inner_Iter|     Min CFL|     Max CFL|      rms[P]|  Cauchy[CD]|          CD|
+-----------------------------------------------------------------------------+
|        7810|  3.7717e+01|  3.7717e+01|  -10.151724|  1.5942e-06|    0.130471|
|        7820|  3.7717e+01|  3.7717e+01|  -10.153935|  1.5861e-06|    0.130473|
|        7830|  3.7717e+01|  3.7717e+01|  -10.156146|  1.5780e-06|    0.130475|
|        7840|  3.7717e+01|  3.7717e+01|  -10.158357|  1.5699e-06|    0.130477|
|        7850|  3.7717e+01|  3.7717e+01|  -10.160567|  1.5619e-06|    0.130479|
|        7860|  3.7717e+01|  3.7717e+01|  -10.162777|  1.5539e-06|    0.130481|
|        7870|  3.7717e+01|  3.7717e+01|  -10.164987|  1.5460e-06|    0.130483|
|        7880|  3.7717e+01|  3.7717e+01|  -10.167197|  1.5381e-06|    0.130484|
|        7890|  3.7717e+01|  3.7717e+01|  -10.169407|  1.5302e-06|    0.130486|
|        7900|  3.7717e+01|  3.7717e+01|  -10.171618|  1.5224e-06|    0.130488|
|        7910|  3.7717e+01|  3.7717e+01|  -10.173828|  1.5147e-06|    0.130490|
|        7920|  3.7717e+01|  3.7717e+01|  -10.176037|  1.5069e-06|    0.130492|
|        7930|  3.7717e+01|  3.7717e+01|  -10.178247|  1.4992e-06|    0.130494|
|        7940|  3.7717e+01|  3.7717e+01|  -10.180456|  1.4916e-06|    0.130496|
|        7950|  3.7717e+01|  3.7717e+01|  -10.182665|  1.4840e-06|    0.130497|
|        7960|  3.7717e+01|  3.7717e+01|  -10.184873|  1.4764e-06|    0.130499|
|        7970|  3.7717e+01|  3.7717e+01|  -10.187081|  1.4689e-06|    0.130501|
|        7980|  3.7717e+01|  3.7717e+01|  -10.189290|  1.4614e-06|    0.130503|
|        7990|  3.7717e+01|  3.7717e+01|  -10.191498|  1.4539e-06|    0.130505|
|        8000|  3.7717e+01|  3.7717e+01|  -10.193706|  1.4465e-06|    0.130506|
+-----------------------------------------------------------------------+
|        File Writing Summary       |              Filename             |
+-----------------------------------------------------------------------+
|SU2 binary restart                 |restart_flow_aoa15.dat             |
|Paraview                           |flow_aoa15.vtu                     |
|Paraview surface                   |surface_flow_aoa15.vtu             |
+-----------------------------------------------------------------------+
+-----------------------------------------------------------------------------+
|  Inner_Iter|     Min CFL|     Max CFL|      rms[P]|  Cauchy[CD]|          CD|
+-----------------------------------------------------------------------------+
|        8010|  3.7717e+01|  3.7717e+01|  -10.195913|  1.4391e-06|    0.130508|
|        8020|  3.7717e+01|  3.7717e+01|  -10.198120|  1.4318e-06|    0.130510|
|        8030|  3.7717e+01|  3.7717e+01|  -10.200327|  1.4245e-06|    0.130512|
|        8040|  3.7717e+01|  3.7717e+01|  -10.202533|  1.4172e-06|    0.130513|
|        8050|  3.7717e+01|  3.7717e+01|  -10.204740|  1.4100e-06|    0.130515|
|        8060|  3.7717e+01|  3.7717e+01|  -10.206946|  1.4028e-06|    0.130517|
|        8070|  3.7717e+01|  3.7717e+01|  -10.209153|  1.3956e-06|    0.130519|
|        8080|  3.7717e+01|  3.7717e+01|  -10.211359|  1.3885e-06|    0.130520|
|        8090|  3.7717e+01|  3.7717e+01|  -10.213565|  1.3814e-06|    0.130522|
|        8100|  3.7717e+01|  3.7717e+01|  -10.215770|  1.3744e-06|    0.130524|
|        8110|  3.7717e+01|  3.7717e+01|  -10.217975|  1.3674e-06|    0.130525|
|        8120|  3.7717e+01|  3.7717e+01|  -10.220179|  1.3604e-06|    0.130527|
|        8130|  3.7717e+01|  3.7717e+01|  -10.222384|  1.3535e-06|    0.130529|
|        8140|  3.7717e+01|  3.7717e+01|  -10.224588|  1.3466e-06|    0.130530|
|        8150|  3.7717e+01|  3.7717e+01|  -10.226793|  1.3397e-06|    0.130532|
|        8160|  3.7717e+01|  3.7717e+01|  -10.228998|  1.3329e-06|    0.130534|
|        8170|  3.7717e+01|  3.7717e+01|  -10.231203|  1.3261e-06|    0.130535|
|        8180|  3.7717e+01|  3.7717e+01|  -10.233407|  1.3193e-06|    0.130537|
|        8190|  3.7717e+01|  3.7717e+01|  -10.235612|  1.3126e-06|    0.130538|
|        8200|  3.7717e+01|  3.7717e+01|  -10.237817|  1.3059e-06|    0.130540|
+-----------------------------------------------------------------------+
|        File Writing Summary       |              Filename             |
+-----------------------------------------------------------------------+
|SU2 binary restart                 |restart_flow_aoa15.dat             |
|Paraview                           |flow_aoa15.vtu                     |
|Paraview surface                   |surface_flow_aoa15.vtu             |
+-----------------------------------------------------------------------+
+-----------------------------------------------------------------------------+
|  Inner_Iter|     Min CFL|     Max CFL|      rms[P]|  Cauchy[CD]|          CD|
+-----------------------------------------------------------------------------+
|        8210|  3.7717e+01|  3.7717e+01|  -10.240021|  1.2993e-06|    0.130542|
|        8220|  3.7717e+01|  3.7717e+01|  -10.242226|  1.2927e-06|    0.130543|
|        8230|  3.7717e+01|  3.7717e+01|  -10.244431|  1.2861e-06|    0.130545|
|        8240|  3.7717e+01|  3.7717e+01|  -10.246637|  1.2795e-06|    0.130546|
|        8250|  3.7717e+01|  3.7717e+01|  -10.248843|  1.2730e-06|    0.130548|
|        8260|  3.7717e+01|  3.7717e+01|  -10.251048|  1.2665e-06|    0.130549|
|        8270|  3.7717e+01|  3.7717e+01|  -10.253254|  1.2601e-06|    0.130551|
|        8280|  3.7717e+01|  3.7717e+01|  -10.255459|  1.2537e-06|    0.130553|
|        8290|  3.7717e+01|  3.7717e+01|  -10.257665|  1.2473e-06|    0.130554|
|        8300|  3.7717e+01|  3.7717e+01|  -10.259872|  1.2410e-06|    0.130556|
|        8310|  3.7717e+01|  3.7717e+01|  -10.262079|  1.2346e-06|    0.130557|
|        8320|  3.7717e+01|  3.7717e+01|  -10.264287|  1.2284e-06|    0.130559|
|        8330|  3.7717e+01|  3.7717e+01|  -10.266495|  1.2221e-06|    0.130560|
|        8340|  3.7717e+01|  3.7717e+01|  -10.268703|  1.2159e-06|    0.130562|
|        8350|  3.7717e+01|  3.7717e+01|  -10.270912|  1.2097e-06|    0.130563|
|        8360|  3.7717e+01|  3.7717e+01|  -10.273120|  1.2036e-06|    0.130565|
|        8370|  3.7717e+01|  3.7717e+01|  -10.275329|  1.1974e-06|    0.130566|
|        8380|  3.7717e+01|  3.7717e+01|  -10.277538|  1.1914e-06|    0.130568|
|        8390|  3.7717e+01|  3.7717e+01|  -10.279748|  1.1853e-06|    0.130569|
|        8400|  3.7717e+01|  3.7717e+01|  -10.281958|  1.1793e-06|    0.130570|
+-----------------------------------------------------------------------+
|        File Writing Summary       |              Filename             |
+-----------------------------------------------------------------------+
|SU2 binary restart                 |restart_flow_aoa15.dat             |
|Paraview                           |flow_aoa15.vtu                     |
|Paraview surface                   |surface_flow_aoa15.vtu             |
+-----------------------------------------------------------------------+
+-----------------------------------------------------------------------------+
|  Inner_Iter|     Min CFL|     Max CFL|      rms[P]|  Cauchy[CD]|          CD|
+-----------------------------------------------------------------------------+
|        8410|  3.7717e+01|  3.7717e+01|  -10.284169|  1.1733e-06|    0.130572|
|        8420|  3.7717e+01|  3.7717e+01|  -10.286380|  1.1673e-06|    0.130573|
|        8430|  3.7717e+01|  3.7717e+01|  -10.288591|  1.1614e-06|    0.130575|
|        8440|  3.7717e+01|  3.7717e+01|  -10.290803|  1.1555e-06|    0.130576|
|        8450|  3.7717e+01|  3.7717e+01|  -10.293015|  1.1496e-06|    0.130578|
|        8460|  3.7717e+01|  3.7717e+01|  -10.295227|  1.1437e-06|    0.130579|
|        8470|  3.7717e+01|  3.7717e+01|  -10.297440|  1.1379e-06|    0.130580|
|        8480|  3.7717e+01|  3.7717e+01|  -10.299653|  1.1321e-06|    0.130582|
|        8490|  3.7717e+01|  3.7717e+01|  -10.301866|  1.1264e-06|    0.130583|
|        8500|  3.7717e+01|  3.7717e+01|  -10.304079|  1.1207e-06|    0.130585|
|        8510|  3.7717e+01|  3.7717e+01|  -10.306293|  1.1150e-06|    0.130586|
|        8520|  3.7717e+01|  3.7717e+01|  -10.308506|  1.1093e-06|    0.130587|
|        8530|  3.7717e+01|  3.7717e+01|  -10.310719|  1.1036e-06|    0.130589|
|        8540|  3.7717e+01|  3.7717e+01|  -10.312933|  1.0980e-06|    0.130590|
|        8550|  3.7717e+01|  3.7717e+01|  -10.315147|  1.0925e-06|    0.130591|
|        8560|  3.7717e+01|  3.7717e+01|  -10.317362|  1.0869e-06|    0.130593|
|        8570|  3.7717e+01|  3.7717e+01|  -10.319577|  1.0814e-06|    0.130594|
|        8580|  3.7717e+01|  3.7717e+01|  -10.321792|  1.0759e-06|    0.130595|
|        8590|  3.7717e+01|  3.7717e+01|  -10.324007|  1.0704e-06|    0.130597|
|        8600|  3.7717e+01|  3.7717e+01|  -10.326222|  1.0649e-06|    0.130598|
+-----------------------------------------------------------------------+
|        File Writing Summary       |              Filename             |
+-----------------------------------------------------------------------+
|SU2 binary restart                 |restart_flow_aoa15.dat             |
|Paraview                           |flow_aoa15.vtu                     |
|Paraview surface                   |surface_flow_aoa15.vtu             |
+-----------------------------------------------------------------------+
+-----------------------------------------------------------------------------+
|  Inner_Iter|     Min CFL|     Max CFL|      rms[P]|  Cauchy[CD]|          CD|
+-----------------------------------------------------------------------------+
|        8610|  3.7717e+01|  3.7717e+01|  -10.328436|  1.0595e-06|    0.130599|
|        8620|  3.7717e+01|  3.7717e+01|  -10.330651|  1.0541e-06|    0.130600|
|        8630|  3.7717e+01|  3.7717e+01|  -10.332865|  1.0488e-06|    0.130602|
|        8640|  3.7717e+01|  3.7717e+01|  -10.335080|  1.0434e-06|    0.130603|
|        8650|  3.7717e+01|  3.7717e+01|  -10.337295|  1.0381e-06|    0.130604|
|        8660|  3.7717e+01|  3.7717e+01|  -10.339511|  1.0329e-06|    0.130606|
|        8670|  3.7717e+01|  3.7717e+01|  -10.341726|  1.0276e-06|    0.130607|
|        8680|  3.7717e+01|  3.7717e+01|  -10.343942|  1.0224e-06|    0.130608|
|        8690|  3.7717e+01|  3.7717e+01|  -10.346157|  1.0172e-06|    0.130609|
|        8700|  3.7717e+01|  3.7717e+01|  -10.348372|  1.0120e-06|    0.130611|
|        8710|  3.7717e+01|  3.7717e+01|  -10.350587|  1.0069e-06|    0.130612|
|        8720|  3.7717e+01|  3.7717e+01|  -10.352802|  1.0017e-06|    0.130613|
|        8724|  3.7717e+01|  3.7717e+01|  -10.353688|  9.9970e-07|    0.130614|

----------------------------- Solver Exit -------------------------------
All convergence criteria satisfied.
+-----------------------------------------------------------------------+
|      Convergence Field     |     Value    |   Criterion  |  Converged |
+-----------------------------------------------------------------------+
|                      rms[P]|      -10.3537|          < -9|         Yes|
|                  Cauchy[CD]|   9.99698e-07|       < 1e-06|         Yes|
+-----------------------------------------------------------------------+
-------------------------------------------------------------------------
+-----------------------------------------------------------------------+
|        File Writing Summary       |              Filename             |
+-----------------------------------------------------------------------+
|SU2 binary restart                 |restart_flow_aoa15.dat             |
|Paraview                           |flow_aoa15.vtu                     |
|Paraview surface                   |surface_flow_aoa15.vtu             |
+-----------------------------------------------------------------------+

------------------------- Solver Postprocessing -------------------------
Deleted CNumerics container.
Deleted CIntegration container.
Deleted CSolver container.
Deleted CIteration container.
Deleted CInterface container.
Deleted CGeometry container.
Deleted CFreeFormDefBox class.
Deleted CSurfaceMovement class.
Deleted CVolumetricMovement class.
Deleted CConfig container.
Deleted nInst container.
Deleted COutput class.
-------------------------------------------------------------------------

------------------------- Exit Success (SU2_CFD) ------------------------

