
-------------------------------------------------------------------------
|    ___ _   _ ___                                                      |
|   / __| | | |_  )   Release 7.4.0 "Blackbird"                         |
|   \__ \ |_| |/ /                                                      |
|   |___/\___//___|   Suite (Computational Fluid Dynamics Code)         |
|                                                                       |
-------------------------------------------------------------------------
| SU2 Project Website: https://su2code.github.io                        |
|                                                                       |
| The SU2 Project is maintained by the SU2 Foundation                   |
| (http://su2foundation.org)                                            |
-------------------------------------------------------------------------
| Copyright 2012-2022, SU2 Contributors                                 |
|                                                                       |
| SU2 is free software; you can redistribute it and/or                  |
| modify it under the terms of the GNU Lesser General Public            |
| License as published by the Free Software Foundation; either          |
| version 2.1 of the License, or (at your option) any later version.    |
|                                                                       |
| SU2 is distributed in the hope that it will be useful,                |
| but WITHOUT ANY WARRANTY; without even the implied warranty of        |
| MERCHANTABILITY or FITNESS FOR A PARTICULAR PURPOSE. See the GNU      |
| Lesser General Public License for more details.                       |
|                                                                       |
| You should have received a copy of the GNU Lesser General Public      |
| License along with SU2. If not, see <http://www.gnu.org/licenses/>.   |
-------------------------------------------------------------------------

Parsing config file for zone 0

----------------- Physical Case Definition ( Zone 0 ) -------------------
Incompressible RANS equations.
Turbulence model: Spalart-Allmaras-noft2
Hybrid RANS/LES: No Hybrid RANS/LES
Reading and writing binary SU2 native restart files.
Read flow solution from: ../../../O1/caseG3/cfdG3/restart_flow_G3.dat.
Non-Dimensional simulation using intialization values.
The reference area is 1 m^2.
The semi-span will be computed using the max y(3D) value.
The reference length is 1.00898 m.
Reference origin for moment evaluation is (-0.756, 0, 0).
Surface(s) where the force coefficients are evaluated: AIRFOIL.

Surface(s) plotted in the output file: AIRFOIL.
Input mesh file name: ../meshG3/meshG3.su2

--------------- Space Numerical Integration ( Zone 0 ) ------------------
Flux difference splitting (FDS) upwind scheme for the flow inviscid terms.
Second order integration in space, with slope limiter.
Venkatakrishnan slope-limiting method, with constant: 0.081.
The reference element size is: 1. 
Average of gradients with correction (viscous flow terms).
Average of gradients with correction (viscous turbulence terms).
Gradient for upwind reconstruction: unweighted Least-Squares.
Gradient for viscous and source terms: Green-Gauss.

--------------- Time Numerical Integration  ( Zone 0 ) ------------------
Local time stepping (steady state simulation).
Euler implicit method for the flow equations.
FGMRES is used for solving the linear system.
Using a ILU(0) preconditioning.
Convergence criteria of the linear solver: 1e-06.
Max number of linear iterations: 10.
CFL adaptation. Factor down: 0.1, factor up: 1.2,
                lower limit: 1, upper limit: 1000,
                acceptable linear residual: 0.001.
Courant-Friedrichs-Lewy number:        2
Euler implicit time integration for the turbulence model.

------------------ Convergence Criteria  ( Zone 0 ) ---------------------
Maximum number of solver subiterations: 9999.
Begin convergence monitoring at iteration 10.
Residual minimum value: 1e-9.
Cauchy series min. value: 1e-06.
Number of Cauchy elements: 250.
Begin windowed time average at iteration 0.

-------------------- Output Information ( Zone 0 ) ----------------------
File writing frequency: 
+------------------------------------+
|                     File| Frequency|
+------------------------------------+
|                  RESTART|       200|
|                 PARAVIEW|       200|
|         SURFACE_PARAVIEW|       200|
+------------------------------------+
Writing the convergence history file every 1 inner iterations.
Writing the screen convergence history every 10 inner iterations.
The tabular file format is CSV (.csv).
Convergence history file name: history_G3.
Forces breakdown file name: forces_breakdown.dat.
Surface file name: surface_flow_G3.
Volume file name: flow_G3.
Restart file name: restart_flow_G3.dat.

------------- Config File Boundary Information ( Zone 0 ) ---------------
+-----------------------------------------------------------------------+
|                        Marker Type|                        Marker Name|
+-----------------------------------------------------------------------+
|                          Far-field|                           FARFIELD|
+-----------------------------------------------------------------------+
|                     Heat flux wall|                            AIRFOIL|
+-----------------------------------------------------------------------+

-------------------- Output Preprocessing ( Zone 0 ) --------------------

WARNING: SURFACE_PRESSURE_DROP can only be computed for at least 2 surfaces (outlet, inlet, ...)

Screen output fields: INNER_ITER, MIN_CFL, MAX_CFL, RMS_PRESSURE, CAUCHY_DRAG, DRAG
History output group(s): INNER_ITER, MIN_CFL, MAX_CFL, RMS_RES, LIFT, DRAG, MOMENT_Z, CAUCHY
Convergence field(s): RMS_PRESSURE, DRAG
Warning: No (valid) fields chosen for time convergence monitoring. Time convergence monitoring inactive.
Volume output fields: COORDINATES, SOLUTION, PRIMITIVE, RESIDUAL, MESH_QUALITY

------------------- Geometry Preprocessing ( Zone 0 ) -------------------
Two dimensional problem.
171642 grid points before partitioning.
170748 volume elements before partitioning.
2 surface markers.
498 boundary elements in index 0 (Marker = AIRFOIL).
1290 boundary elements in index 1 (Marker = FARFIELD).
Executing the partitioning functions.
Building the graph adjacency structure.
Calling ParMETIS... graph partitioning complete (4454 edge cuts).
Distributing ParMETIS coloring.
Rebalancing vertices.
Rebalancing volume element connectivity.
Rebalancing markers and surface elements.
180610 vertices including ghost points. 
175209 interior elements including halo cells. 
175209 quadrilaterals.
Establishing MPI communication patterns.
Setting point connectivity.
Renumbering points (Reverse Cuthill McKee Ordering).
Recomputing point connectivity.
Setting element connectivity.
Checking the numerical grid orientation.
All volume elements are correctly orientend.
There has been a re-orientation of 903 LINE surface elements.
Identifying edges and vertices.
Setting the control volume structure.
Area of the computational grid: 102995.
Searching for the closest normal neighbors to the surfaces.
Storing a mapping from global to local point index.
Compute the surface curvature.
Max K: 4099.33. Mean K: 3.39352. Standard deviation K: 97.1864.
Checking for periodicity.
Computing mesh quality statistics for the dual control volumes.
+--------------------------------------------------------------+
|           Mesh Quality Metric|        Minimum|        Maximum|
+--------------------------------------------------------------+
|    Orthogonality Angle (deg.)|        72.0641|             90|
|     CV Face Area Aspect Ratio|        1.00012|         425426|
|           CV Sub-Volume Ratio|              1|        2.81252|
+--------------------------------------------------------------+
Finding max control volume width.
Communicating number of neighbors.
Wetted area = 2.05956 m.
Area projection in the x-plane = 0.121113 m, y-plane = 1.00873 m.
Max. coordinate in the x-direction = 1.00898 m, y-direction = 0.0759836 m.
Min. coordinate in the x-direction = 3.20676e-06 m, y-direction = -0.0451322 m.
Computing wall distances.

-------------------- Solver Preprocessing ( Zone 0 ) --------------------
 Warning: There is no restart file (flow.meta).
 Computation will continue without updating metadata parameters.
Incompressible flow: rho_ref, vel_ref, and temp_ref
are based on the initial values, p_ref = rho_ref*vel_ref^2.
Force coefficients computed using initial values.
The reference area for force coeffs. is 1 m^2.
The reference length for force coeffs. is 1.00898 m.
The pressure is decomposed into thermodynamic and dynamic components.
The initial value of the dynamic pressure is 0.
Mach number: 0.0276747, computed using the Bulk modulus.
For external flows, the initial state is imposed at the far-field.
Angle of attack (deg): 14, computed using the initial velocity.
Side slip angle (deg): 0, computed using the initial velocity.
Reynolds number per meter: 594999, computed using initial values.
Reynolds number is a byproduct of inputs only (not used internally).
SI units only. The grid should be dimensional (meters).
No energy equation.

-- Models:
+------------------------------------------------------------------------------+
|          Viscosity Model|        Conductivity Model|              Fluid Model|
+------------------------------------------------------------------------------+
|       CONSTANT_VISCOSITY|          CONSTANT_PRANDTL|         CONSTANT_DENSITY|
+------------------------------------------------------------------------------+
-- Fluid properties:
+------------------------------------------------------------------------------+
|                  Name|    Dim. value|    Ref. value|      Unit|Non-dim. value|
+------------------------------------------------------------------------------+
|             Viscosity|      1.92e-05|        11.424|   N.s/m^2|   1.68067e-06|
+------------------------------------------------------------------------------+
|        Prandtl (Lam.)|             -|             -|         -|          0.72|
|       Prandtl (Turb.)|             -|             -|         -|           0.9|
+------------------------------------------------------------------------------+
|          Bulk Modulus|        142000|             1|        Pa|        142000|
+------------------------------------------------------------------------------+
-- Initial and free-stream conditions:
+------------------------------------------------------------------------------+
|                  Name|    Dim. value|    Ref. value|      Unit|Non-dim. value|
+------------------------------------------------------------------------------+
|      Dynamic Pressure|             0|       108.756|        Pa|             0|
|        Total Pressure|       54.3781|       108.756|        Pa|           0.5|
|               Density|           1.2|           1.2|    kg/m^3|             1|
|            Velocity-X|        9.2372|       9.51999|       m/s|      0.970296|
|            Velocity-Y|        2.3031|       9.51999|       m/s|      0.241923|
|    Velocity Magnitude|       9.51999|       9.51999|       m/s|             1|
+------------------------------------------------------------------------------+
|             Viscosity|      1.92e-05|        11.424|   N.s/m^2|   1.68067e-06|
|          Conductivity|             -|       3.59312|   W/m^2.K|             -|
|     Turb. Kin. Energy|       1.35945|       90.6301|   m^2/s^2|         0.015|
|     Spec. Dissipation|       8496.58|       9.51999|       1/s|       892.499|
+------------------------------------------------------------------------------+
|           Mach Number|             -|             -|         -|     0.0276747|
|       Reynolds Number|             -|             -|         -|        594999|
+------------------------------------------------------------------------------+
Initialize Jacobian structure (Navier-Stokes). MG level: 0.
Initialize Jacobian structure (SA model).

------------------- Numerics Preprocessing ( Zone 0 ) -------------------

----------------- Integration Preprocessing ( Zone 0 ) ------------------

------------------- Iteration Preprocessing ( Zone 0 ) ------------------
Euler/Navier-Stokes/RANS fluid iteration.

------------------------------ Begin Solver -----------------------------

Simulation Run using the Single-zone Driver
+-----------------------------------------------------------------------------+
|  Inner_Iter|     Min CFL|     Max CFL|      rms[P]|  Cauchy[CD]|          CD|
+-----------------------------------------------------------------------------+
|           0|  2.4000e+00|  2.4000e+00|   -6.045220|  1.0000e+00|    0.129392|
|          10|  1.4860e+01|  1.4860e+01|   -6.027309|  1.2173e-04|    0.125526|
|          20|  5.3247e+01|  5.3247e+01|   -6.343056|  2.2580e-03|    0.069959|
|          30|  2.7474e+01|  2.7474e+01|   -6.340120|  2.4001e-03|    0.066923|
|          40|  1.4176e+01|  1.4176e+01|   -6.364795|  2.6095e-03|    0.072158|
|          50|  7.3145e+00|  7.3145e+00|   -6.302996|  2.6941e-03|    0.074263|
|          60|  4.5290e+01|  4.5290e+01|   -6.414281|  2.7363e-03|    0.073210|
|          70|  2.3368e+01|  2.3368e+01|   -6.485620|  2.8206e-03|    0.071101|
|          80|  8.3733e+00|  8.3733e+00|   -6.498689|  2.9364e-03|    0.073634|
|          90|  5.1845e+01|  5.1845e+01|   -6.554983|  2.9906e-03|    0.074989|
|         100|  2.6751e+01|  2.6751e+01|   -6.613465|  3.0235e-03|    0.074167|
|         110|  1.3803e+01|  1.3803e+01|   -6.626021|  3.1259e-03|    0.071608|
|         120|  7.1220e+00|  7.1220e+00|   -6.626871|  3.2169e-03|    0.069333|
|         130|  4.4098e+01|  4.4098e+01|   -6.621361|  3.2490e-03|    0.068531|
|         140|  2.2754e+01|  2.2754e+01|   -6.645687|  3.2606e-03|    0.068791|
|         150|  1.1740e+01|  1.1740e+01|   -6.672884|  3.3084e-03|    0.069986|
|         160|  6.0577e+00|  6.0577e+00|   -6.648164|  3.3766e-03|    0.071690|
|         170|  3.7508e+01|  3.7508e+01|   -6.634575|  3.3991e-03|    0.072252|
|         180|  1.9353e+01|  1.9353e+01|   -6.636466|  3.4149e-03|    0.071908|
|         190|  9.9859e+00|  9.9859e+00|   -6.691034|  3.4700e-03|    0.070529|
|         200|  5.1525e+00|  5.1525e+00|   -6.748544|  3.5321e-03|    0.068976|
+-----------------------------------------------------------------------+
|        File Writing Summary       |              Filename             |
+-----------------------------------------------------------------------+
|SU2 binary restart                 |restart_flow_G3.dat                |
|Paraview                           |flow_G3.vtu                        |
|Paraview surface                   |surface_flow_G3.vtu                |
+-----------------------------------------------------------------------+
+-----------------------------------------------------------------------------+
|  Inner_Iter|     Min CFL|     Max CFL|      rms[P]|  Cauchy[CD]|          CD|
+-----------------------------------------------------------------------------+
|         210|  3.1903e+01|  3.1903e+01|   -6.732064|  3.5455e-03|    0.068642|
|         220|  4.5940e+01|  4.5940e+01|   -6.730775|  3.5833e-03|    0.069562|
|         230|  1.6461e+01|  1.6461e+01|   -6.752114|  3.5918e-03|    0.069715|
|         240|  8.4936e+00|  8.4936e+00|   -6.762491|  3.6131e-03|    0.069184|
|         250|  5.2590e+01|  5.2590e+01|   -6.782658|  3.6412e-03|    0.068481|
|         260|  2.7135e+01|  2.7135e+01|   -6.778353|  3.5370e-03|    0.068042|
|         270|  1.4001e+01|  1.4001e+01|   -6.753326|  1.4227e-03|    0.067493|
|         280|  7.2243e+00|  7.2243e+00|   -6.789452|  1.3123e-03|    0.066700|
|         290|  4.4731e+01|  4.4731e+01|   -6.839819|  1.1268e-03|    0.066105|
|         300|  1.1131e+01|  1.1131e+01|   -6.884991|  1.0773e-03|    0.065223|
|         310|  5.7431e+00|  5.7431e+00|   -6.852955|  1.0502e-03|    0.064848|
|         320|  3.5560e+01|  3.5560e+01|   -6.851390|  9.6990e-04|    0.064747|
|         330|  1.8348e+01|  1.8348e+01|   -6.863979|  8.6107e-04|    0.064574|
|         340|  9.4672e+00|  9.4672e+00|   -6.905304|  8.2500e-04|    0.064119|
|         350|  4.8849e+00|  4.8849e+00|   -6.951448|  8.2088e-04|    0.063400|
|         360|  3.0246e+01|  3.0246e+01|   -6.952707|  7.3585e-04|    0.062967|
|         370|  1.5606e+01|  1.5606e+01|   -6.907820|  6.7383e-04|    0.062242|
|         380|  5.5920e+00|  5.5920e+00|   -6.897265|  6.7708e-04|    0.061359|
|         390|  3.4624e+01|  3.4624e+01|   -6.957481|  6.7523e-04|    0.061114|
|         400|  1.7865e+01|  1.7865e+01|   -7.047828|  6.3783e-04|    0.060853|
+-----------------------------------------------------------------------+
|        File Writing Summary       |              Filename             |
+-----------------------------------------------------------------------+
|SU2 binary restart                 |restart_flow_G3.dat                |
|Paraview                           |flow_G3.vtu                        |
|Paraview surface                   |surface_flow_G3.vtu                |
+-----------------------------------------------------------------------+
+-----------------------------------------------------------------------------+
|  Inner_Iter|     Min CFL|     Max CFL|      rms[P]|  Cauchy[CD]|          CD|
+-----------------------------------------------------------------------------+
|         410|  9.2181e+00|  9.2181e+00|   -7.010852|  5.8323e-04|    0.060515|
|         420|  4.7563e+01|  4.7563e+01|   -6.971132|  5.7698e-04|    0.060109|
|         430|  4.7563e+01|  4.7563e+01|   -7.030563|  5.9883e-04|    0.059168|
|         440|  4.7563e+01|  4.7563e+01|   -7.071937|  5.7551e-04|    0.058373|
|         450|  4.7563e+01|  4.7563e+01|   -7.043246|  5.3804e-04|    0.057757|
|         460|  1.1835e+01|  1.1835e+01|   -7.174609|  5.3552e-04|    0.057485|
|         470|  5.0890e+01|  5.0890e+01|   -7.146359|  5.0436e-04|    0.057320|
|         480|  5.0890e+01|  5.0890e+01|   -7.092281|  5.1133e-04|    0.056931|
|         490|  2.6258e+01|  2.6258e+01|   -7.149803|  4.9884e-04|    0.056713|
|         500|  5.4448e+01|  5.4448e+01|   -7.061515|  4.8731e-04|    0.056298|
|         510|  5.4448e+01|  5.4448e+01|   -7.068734|  4.7792e-04|    0.056094|
|         520|  5.4448e+01|  5.4448e+01|   -7.135196|  4.5910e-04|    0.056015|
|         530|  5.4448e+01|  5.4448e+01|   -7.151610|  4.3169e-04|    0.055908|
|         540|  5.4448e+01|  5.4448e+01|   -7.135841|  4.1418e-04|    0.055751|
|         550|  5.4448e+01|  5.4448e+01|   -7.134374|  3.8126e-04|    0.055705|
|         560|  5.4448e+01|  5.4448e+01|   -7.156913|  3.7108e-04|    0.055826|
|         570|  1.1290e+01|  1.1290e+01|   -7.273266|  3.7116e-04|    0.055930|
|         580|  5.8256e+00|  5.8256e+00|   -7.225150|  3.6703e-04|    0.056000|
|         590|  3.6071e+01|  3.6071e+01|   -7.288540|  3.5013e-04|    0.056031|
|         600|  1.8612e+01|  1.8612e+01|   -7.300692|  3.2252e-04|    0.056060|
+-----------------------------------------------------------------------+
|        File Writing Summary       |              Filename             |
+-----------------------------------------------------------------------+
|SU2 binary restart                 |restart_flow_G3.dat                |
|Paraview                           |flow_G3.vtu                        |
|Paraview surface                   |surface_flow_G3.vtu                |
+-----------------------------------------------------------------------+
+-----------------------------------------------------------------------------+
|  Inner_Iter|     Min CFL|     Max CFL|      rms[P]|  Cauchy[CD]|          CD|
+-----------------------------------------------------------------------------+
|         610|  9.6032e+00|  9.6032e+00|   -7.236756|  3.0664e-04|    0.056097|
|         620|  4.9550e+01|  4.9550e+01|   -7.274617|  2.7947e-04|    0.056142|
|         630|  4.9550e+01|  4.9550e+01|   -7.270196|  2.4993e-04|    0.056286|
|         640|  4.9550e+01|  4.9550e+01|   -7.277974|  2.4876e-04|    0.056502|
|         650|  2.1306e+01|  2.1306e+01|   -7.315288|  2.4183e-04|    0.056590|
|         660|  1.0993e+01|  1.0993e+01|   -7.307173|  2.3251e-04|    0.056696|
|         670|  4.7269e+01|  4.7269e+01|   -7.283950|  2.2070e-04|    0.056806|
|         680|  1.1762e+01|  1.1762e+01|   -7.291768|  1.8776e-04|    0.056923|
|         690|  6.0690e+00|  6.0690e+00|   -7.272282|  1.5956e-04|    0.057014|
|         700|  3.7578e+01|  3.7578e+01|   -7.287698|  1.3723e-04|    0.057072|
|         710|  1.9389e+01|  1.9389e+01|   -7.289046|  1.2969e-04|    0.057154|
|         720|  1.0004e+01|  1.0004e+01|   -7.245597|  1.2808e-04|    0.057280|
|         730|  5.1620e+00|  5.1620e+00|   -7.268560|  1.1762e-04|    0.057407|
|         740|  3.1962e+01|  3.1962e+01|   -7.285129|  1.1149e-04|    0.057472|
|         750|  1.6492e+01|  1.6492e+01|   -7.282198|  9.9114e-05|    0.057577|
|         760|  8.5094e+00|  8.5094e+00|   -7.198147|  9.5955e-05|    0.057702|
|         770|  5.2688e+01|  5.2688e+01|   -7.244408|  9.6411e-05|    0.057792|
|         780|  5.2688e+01|  5.2688e+01|   -7.207634|  9.9942e-05|    0.057988|
|         790|  2.7186e+01|  2.7186e+01|   -7.248525|  9.7086e-05|    0.058074|
|         800|  1.4027e+01|  1.4027e+01|   -7.265911|  9.8519e-05|    0.058168|
+-----------------------------------------------------------------------+
|        File Writing Summary       |              Filename             |
+-----------------------------------------------------------------------+
|SU2 binary restart                 |restart_flow_G3.dat                |
|Paraview                           |flow_G3.vtu                        |
|Paraview surface                   |surface_flow_G3.vtu                |
+-----------------------------------------------------------------------+
+-----------------------------------------------------------------------------+
|  Inner_Iter|     Min CFL|     Max CFL|      rms[P]|  Cauchy[CD]|          CD|
+-----------------------------------------------------------------------------+
|         810|  7.2377e+00|  7.2377e+00|   -7.200178|  9.8425e-05|    0.058287|
|         820|  4.4814e+01|  4.4814e+01|   -7.235714|  9.7357e-05|    0.058363|
|         830|  2.3123e+01|  2.3123e+01|   -7.244968|  9.8113e-05|    0.058452|
|         840|  5.7538e+01|  5.7538e+01|   -7.187390|  1.0274e-04|    0.058600|
|         850|  5.7538e+01|  5.7538e+01|   -7.175707|  1.0769e-04|    0.058753|
|         860|  1.1931e+01|  1.1931e+01|   -7.179390|  1.1067e-04|    0.058863|
|         870|  6.1561e+00|  6.1561e+00|   -7.208897|  1.1190e-04|    0.058940|
|         880|  3.8117e+01|  3.8117e+01|   -7.239250|  1.0759e-04|    0.058976|
|         890|  1.9668e+01|  1.9668e+01|   -7.253221|  1.0126e-04|    0.059034|
|         900|  5.8727e+01|  5.8727e+01|   -7.233078|  1.0086e-04|    0.059111|
|         910|  2.5252e+01|  2.5252e+01|   -7.268344|  9.8167e-05|    0.059150|
|         920|  1.3029e+01|  1.3029e+01|   -7.273729|  9.4952e-05|    0.059180|
|         930|  6.7228e+00|  6.7228e+00|   -7.281496|  9.1456e-05|    0.059209|
|         940|  4.1626e+01|  4.1626e+01|   -7.305220|  8.8408e-05|    0.059224|
|         950|  5.9941e+01|  5.9941e+01|   -7.307520|  8.7637e-05|    0.059263|
|         960|  5.9941e+01|  5.9941e+01|   -7.328022|  8.4862e-05|    0.059276|
|         970|  5.9941e+01|  5.9941e+01|   -7.342340|  8.0363e-05|    0.059263|
|         980|  5.9941e+01|  5.9941e+01|   -7.350938|  7.6778e-05|    0.059226|
|         990|  5.9941e+01|  5.9941e+01|   -7.352906|  7.6369e-05|    0.059171|
|        1000|  5.9941e+01|  5.9941e+01|   -7.350141|  7.5194e-05|    0.059095|
+-----------------------------------------------------------------------+
|        File Writing Summary       |              Filename             |
+-----------------------------------------------------------------------+
|SU2 binary restart                 |restart_flow_G3.dat                |
|Paraview                           |flow_G3.vtu                        |
|Paraview surface                   |surface_flow_G3.vtu                |
+-----------------------------------------------------------------------+
+-----------------------------------------------------------------------------+
|  Inner_Iter|     Min CFL|     Max CFL|      rms[P]|  Cauchy[CD]|          CD|
+-----------------------------------------------------------------------------+
|        1010|  5.9941e+01|  5.9941e+01|   -7.346622|  7.4202e-05|    0.058995|
|        1020|  5.9941e+01|  5.9941e+01|   -7.344260|  7.5329e-05|    0.058876|
|        1030|  5.9941e+01|  5.9941e+01|   -7.343816|  7.2856e-05|    0.058742|
|        1040|  5.9941e+01|  5.9941e+01|   -7.345254|  7.5471e-05|    0.058591|
|        1050|  1.0358e+01|  1.0358e+01|   -7.321711|  7.7324e-05|    0.058450|
|        1060|  6.4133e+01|  6.4133e+01|   -7.371396|  7.5799e-05|    0.058370|
|        1070|  3.3091e+01|  3.3091e+01|   -7.394978|  7.5159e-05|    0.058309|
|        1080|  1.7074e+01|  1.7074e+01|   -7.406220|  7.5153e-05|    0.058221|
|        1090|  8.8100e+00|  8.8100e+00|   -7.367551|  7.3778e-05|    0.058108|
|        1100|  5.4549e+01|  5.4549e+01|   -7.392912|  7.0756e-05|    0.058030|
|        1110|  2.8146e+01|  2.8146e+01|   -7.404319|  6.9442e-05|    0.057953|
|        1120|  1.4523e+01|  1.4523e+01|   -7.404139|  7.0738e-05|    0.057844|
|        1130|  7.4935e+00|  7.4935e+00|   -7.387326|  7.4542e-05|    0.057712|
|        1140|  4.6398e+01|  4.6398e+01|   -7.402681|  7.5112e-05|    0.057640|
|        1150|  6.6813e+01|  6.6813e+01|   -7.382527|  8.1123e-05|    0.057413|
|        1160|  6.6813e+01|  6.6813e+01|   -7.387747|  8.9492e-05|    0.057165|
|        1170|  6.6813e+01|  6.6813e+01|   -7.400822|  9.8273e-05|    0.056915|
|        1180|  6.6813e+01|  6.6813e+01|   -7.422078|  1.0714e-04|    0.056664|
|        1190|  6.6813e+01|  6.6813e+01|   -7.450867|  1.1668e-04|    0.056411|
|        1200|  6.6813e+01|  6.6813e+01|   -7.487820|  1.2524e-04|    0.056158|
+-----------------------------------------------------------------------+
|        File Writing Summary       |              Filename             |
+-----------------------------------------------------------------------+
|SU2 binary restart                 |restart_flow_G3.dat                |
|Paraview                           |flow_G3.vtu                        |
|Paraview surface                   |surface_flow_G3.vtu                |
+-----------------------------------------------------------------------+
+-----------------------------------------------------------------------------+
|  Inner_Iter|     Min CFL|     Max CFL|      rms[P]|  Cauchy[CD]|          CD|
+-----------------------------------------------------------------------------+
|        1210|  6.6813e+01|  6.6813e+01|   -7.531156|  1.3466e-04|    0.055910|
|        1220|  6.6813e+01|  6.6813e+01|   -7.578605|  1.4390e-04|    0.055665|
|        1230|  6.6813e+01|  6.6813e+01|   -7.625119|  1.5202e-04|    0.055425|
|        1240|  6.6813e+01|  6.6813e+01|   -7.663717|  1.5920e-04|    0.055191|
|        1250|  6.6813e+01|  6.6813e+01|   -7.687846|  1.6533e-04|    0.054962|
|        1260|  6.6813e+01|  6.6813e+01|   -7.693968|  1.7026e-04|    0.054738|
|        1270|  6.6813e+01|  6.6813e+01|   -7.684644|  1.7427e-04|    0.054520|
|        1280|  6.6813e+01|  6.6813e+01|   -7.666362|  1.7748e-04|    0.054305|
|        1290|  6.6813e+01|  6.6813e+01|   -7.645883|  1.7985e-04|    0.054095|
|        1300|  6.6813e+01|  6.6813e+01|   -7.628101|  1.8251e-04|    0.053888|
|        1310|  6.6813e+01|  6.6813e+01|   -7.615900|  1.8746e-04|    0.053683|
|        1320|  6.6813e+01|  6.6813e+01|   -7.610795|  1.9313e-04|    0.053481|
|        1330|  6.6813e+01|  6.6813e+01|   -7.613565|  1.9761e-04|    0.053280|
|        1340|  6.6813e+01|  6.6813e+01|   -7.624490|  2.0110e-04|    0.053080|
|        1350|  6.6813e+01|  6.6813e+01|   -7.643652|  2.0597e-04|    0.052881|
|        1360|  6.6813e+01|  6.6813e+01|   -7.671042|  2.1080e-04|    0.052683|
|        1370|  8.0175e+00|  8.0175e+00|   -7.706290|  2.1367e-04|    0.052502|
|        1380|  4.9642e+01|  4.9642e+01|   -7.753886|  2.1093e-04|    0.052439|
|        1390|  2.5614e+01|  2.5614e+01|   -7.770874|  2.1125e-04|    0.052359|
|        1400|  6.3737e+01|  6.3737e+01|   -7.783296|  2.0797e-04|    0.052213|
+-----------------------------------------------------------------------+
|        File Writing Summary       |              Filename             |
+-----------------------------------------------------------------------+
|SU2 binary restart                 |restart_flow_G3.dat                |
|Paraview                           |flow_G3.vtu                        |
|Paraview surface                   |surface_flow_G3.vtu                |
+-----------------------------------------------------------------------+
+-----------------------------------------------------------------------------+
|  Inner_Iter|     Min CFL|     Max CFL|      rms[P]|  Cauchy[CD]|          CD|
+-----------------------------------------------------------------------------+
|        1410|  6.3737e+01|  6.3737e+01|   -7.825245|  2.0561e-04|    0.052025|
|        1420|  6.3737e+01|  6.3737e+01|   -7.863598|  2.0300e-04|    0.051840|
|        1430|  2.2838e+01|  2.2838e+01|   -7.936950|  1.9608e-04|    0.051762|
|        1440|  1.1784e+01|  1.1784e+01|   -7.919672|  1.8955e-04|    0.051672|
|        1450|  6.0802e+01|  6.0802e+01|   -7.938859|  1.8275e-04|    0.051589|
|        1460|  6.0802e+01|  6.0802e+01|   -7.940827|  1.7939e-04|    0.051425|
|        1470|  6.0802e+01|  6.0802e+01|   -7.937709|  1.7638e-04|    0.051256|
|        1480|  6.0802e+01|  6.0802e+01|   -7.929858|  1.7317e-04|    0.051096|
|        1490|  6.0802e+01|  6.0802e+01|   -7.921106|  1.6995e-04|    0.050942|
|        1500|  6.0802e+01|  6.0802e+01|   -7.915021|  1.6685e-04|    0.050791|
|        1510|  6.0802e+01|  6.0802e+01|   -7.912945|  1.6390e-04|    0.050641|
|        1520|  6.0802e+01|  6.0802e+01|   -7.915953|  1.6099e-04|    0.050495|
|        1530|  6.0802e+01|  6.0802e+01|   -7.923947|  1.5810e-04|    0.050353|
|        1540|  6.0802e+01|  6.0802e+01|   -7.936161|  1.5529e-04|    0.050213|
|        1550|  1.8155e+01|  1.8155e+01|   -7.972573|  1.4979e-04|    0.050143|
|        1560|  9.3678e+00|  9.3678e+00|   -7.948124|  1.4447e-04|    0.050071|
|        1570|  5.8003e+01|  5.8003e+01|   -7.988481|  1.3855e-04|    0.050017|
|        1580|  5.8003e+01|  5.8003e+01|   -7.992203|  1.3561e-04|    0.049890|
|        1590|  5.8003e+01|  5.8003e+01|   -8.001509|  1.3291e-04|    0.049758|
|        1600|  5.8003e+01|  5.8003e+01|   -8.017608|  1.3012e-04|    0.049628|
+-----------------------------------------------------------------------+
|        File Writing Summary       |              Filename             |
+-----------------------------------------------------------------------+
|SU2 binary restart                 |restart_flow_G3.dat                |
|Paraview                           |flow_G3.vtu                        |
|Paraview surface                   |surface_flow_G3.vtu                |
+-----------------------------------------------------------------------+
+-----------------------------------------------------------------------------+
|  Inner_Iter|     Min CFL|     Max CFL|      rms[P]|  Cauchy[CD]|          CD|
+-----------------------------------------------------------------------------+
|        1610|  2.9928e+01|  2.9928e+01|   -8.069186|  1.2380e-04|    0.049588|
|        1620|  1.5442e+01|  1.5442e+01|   -8.079505|  1.1895e-04|    0.049528|
|        1630|  5.5333e+01|  5.5333e+01|   -8.050941|  1.1956e-04|    0.049450|
|        1640|  5.5333e+01|  5.5333e+01|   -8.060777|  1.2121e-04|    0.049329|
|        1650|  5.5333e+01|  5.5333e+01|   -8.062524|  1.2044e-04|    0.049202|
|        1660|  5.5333e+01|  5.5333e+01|   -8.065127|  1.1783e-04|    0.049079|
|        1670|  5.5333e+01|  5.5333e+01|   -8.065624|  1.1532e-04|    0.048957|
|        1680|  5.5333e+01|  5.5333e+01|   -8.065965|  1.1709e-04|    0.048835|
|        1690|  5.5333e+01|  5.5333e+01|   -8.067529|  1.1849e-04|    0.048710|
|        1700|  5.5333e+01|  5.5333e+01|   -8.069698|  1.2015e-04|    0.048585|
|        1710|  7.9679e+00|  7.9679e+00|   -8.055192|  1.1764e-04|    0.048484|
|        1720|  4.9335e+01|  4.9335e+01|   -8.101335|  1.1281e-04|    0.048436|
|        1730|  2.5456e+01|  2.5456e+01|   -8.110845|  1.0824e-04|    0.048390|
|        1740|  5.2785e+01|  5.2785e+01|   -8.092064|  1.0603e-04|    0.048291|
|        1750|  5.2785e+01|  5.2785e+01|   -8.102480|  1.0472e-04|    0.048173|
|        1760|  5.2785e+01|  5.2785e+01|   -8.111051|  1.0347e-04|    0.048054|
|        1770|  5.2785e+01|  5.2785e+01|   -8.124185|  1.0229e-04|    0.047938|
|        1780|  5.2785e+01|  5.2785e+01|   -8.139512|  1.0123e-04|    0.047822|
|        1790|  2.7236e+01|  2.7236e+01|   -8.180187|  9.7085e-05|    0.047786|
|        1800|  1.4053e+01|  1.4053e+01|   -8.185869|  9.6420e-05|    0.047732|
+-----------------------------------------------------------------------+
|        File Writing Summary       |              Filename             |
+-----------------------------------------------------------------------+
|SU2 binary restart                 |restart_flow_G3.dat                |
|Paraview                           |flow_G3.vtu                        |
|Paraview surface                   |surface_flow_G3.vtu                |
+-----------------------------------------------------------------------+
+-----------------------------------------------------------------------------+
|  Inner_Iter|     Min CFL|     Max CFL|      rms[P]|  Cauchy[CD]|          CD|
+-----------------------------------------------------------------------------+
|        1810|  5.0355e+01|  5.0355e+01|   -8.168303|  9.6406e-05|    0.047661|
|        1820|  5.0355e+01|  5.0355e+01|   -8.183881|  9.8583e-05|    0.047553|
|        1830|  5.0355e+01|  5.0355e+01|   -8.189885|  9.7930e-05|    0.047442|
|        1840|  5.0355e+01|  5.0355e+01|   -8.196604|  9.6980e-05|    0.047333|
|        1850|  5.0355e+01|  5.0355e+01|   -8.202299|  9.6111e-05|    0.047225|
|        1860|  5.0355e+01|  5.0355e+01|   -8.204870|  9.8757e-05|    0.047119|
|        1870|  5.0355e+01|  5.0355e+01|   -8.204899|  1.0066e-04|    0.047012|
|        1880|  5.0355e+01|  5.0355e+01|   -8.205540|  1.0180e-04|    0.046905|
|        1890|  5.0355e+01|  5.0355e+01|   -8.206281|  1.0121e-04|    0.046799|
|        1900|  7.2512e+00|  7.2512e+00|   -8.181292|  9.9627e-05|    0.046712|
|        1910|  4.4897e+01|  4.4897e+01|   -8.231574|  9.6320e-05|    0.046671|
|        1920|  2.3166e+01|  2.3166e+01|   -8.241642|  9.3006e-05|    0.046632|
|        1930|  4.8037e+01|  4.8037e+01|   -8.219122|  9.1470e-05|    0.046548|
|        1940|  4.8037e+01|  4.8037e+01|   -8.222634|  9.0481e-05|    0.046448|
|        1950|  4.8037e+01|  4.8037e+01|   -8.223063|  8.9528e-05|    0.046347|
|        1960|  4.8037e+01|  4.8037e+01|   -8.227809|  8.9434e-05|    0.046248|
|        1970|  4.8037e+01|  4.8037e+01|   -8.234862|  9.1459e-05|    0.046149|
|        1980|  4.8037e+01|  4.8037e+01|   -8.242740|  9.3524e-05|    0.046052|
|        1990|  4.8037e+01|  4.8037e+01|   -8.251575|  9.3458e-05|    0.045955|
|        2000|  4.8037e+01|  4.8037e+01|   -8.261670|  9.2609e-05|    0.045858|
+-----------------------------------------------------------------------+
|        File Writing Summary       |              Filename             |
+-----------------------------------------------------------------------+
|SU2 binary restart                 |restart_flow_G3.dat                |
|Paraview                           |flow_G3.vtu                        |
|Paraview surface                   |surface_flow_G3.vtu                |
+-----------------------------------------------------------------------+
+-----------------------------------------------------------------------------+
|  Inner_Iter|     Min CFL|     Max CFL|      rms[P]|  Cauchy[CD]|          CD|
+-----------------------------------------------------------------------------+
|        2010|  4.8037e+01|  4.8037e+01|   -8.271687|  9.1711e-05|    0.045761|
|        2020|  4.8037e+01|  4.8037e+01|   -8.281700|  9.0870e-05|    0.045666|
|        2030|  4.8037e+01|  4.8037e+01|   -8.291979|  9.0046e-05|    0.045571|
|        2040|  1.7213e+01|  1.7213e+01|   -8.334573|  9.0229e-05|    0.045530|
|        2050|  8.8813e+00|  8.8813e+00|   -8.295327|  9.0027e-05|    0.045482|
|        2060|  4.5826e+01|  4.5826e+01|   -8.326062|  8.8979e-05|    0.045437|
|        2070|  4.5826e+01|  4.5826e+01|   -8.321110|  8.8125e-05|    0.045350|
|        2080|  4.5826e+01|  4.5826e+01|   -8.325505|  8.7261e-05|    0.045260|
|        2090|  4.5826e+01|  4.5826e+01|   -8.328911|  8.6480e-05|    0.045171|
|        2100|  4.5826e+01|  4.5826e+01|   -8.331562|  8.5702e-05|    0.045083|
|        2110|  4.5826e+01|  4.5826e+01|   -8.334184|  8.4922e-05|    0.044996|
|        2120|  4.5826e+01|  4.5826e+01|   -8.335814|  8.4104e-05|    0.044909|
|        2130|  4.5826e+01|  4.5826e+01|   -8.337114|  8.3258e-05|    0.044824|
|        2140|  4.5826e+01|  4.5826e+01|   -8.338781|  8.2451e-05|    0.044737|
|        2150|  4.5826e+01|  4.5826e+01|   -8.340500|  8.2396e-05|    0.044652|
|        2160|  4.5826e+01|  4.5826e+01|   -8.342301|  8.4151e-05|    0.044567|
|        2170|  4.5826e+01|  4.5826e+01|   -8.344616|  8.5963e-05|    0.044483|
|        2180|  4.5826e+01|  4.5826e+01|   -8.347415|  8.5973e-05|    0.044399|
|        2190|  4.5826e+01|  4.5826e+01|   -8.350726|  8.5338e-05|    0.044315|
|        2200|  4.5826e+01|  4.5826e+01|   -8.354191|  8.4634e-05|    0.044231|
+-----------------------------------------------------------------------+
|        File Writing Summary       |              Filename             |
+-----------------------------------------------------------------------+
|SU2 binary restart                 |restart_flow_G3.dat                |
|Paraview                           |flow_G3.vtu                        |
|Paraview surface                   |surface_flow_G3.vtu                |
+-----------------------------------------------------------------------+
+-----------------------------------------------------------------------------+
|  Inner_Iter|     Min CFL|     Max CFL|      rms[P]|  Cauchy[CD]|          CD|
+-----------------------------------------------------------------------------+
|        2210|  2.3645e+01|  2.3645e+01|   -8.387260|  8.1709e-05|    0.044205|
|        2220|  1.2200e+01|  1.2200e+01|   -8.391093|  7.9328e-05|    0.044166|
|        2230|  4.3716e+01|  4.3716e+01|   -8.367007|  7.7483e-05|    0.044115|
|        2240|  4.3716e+01|  4.3716e+01|   -8.370652|  7.6692e-05|    0.044038|
|        2250|  4.3716e+01|  4.3716e+01|   -8.372941|  7.5940e-05|    0.043959|
|        2260|  4.3716e+01|  4.3716e+01|   -8.375418|  7.5204e-05|    0.043881|
|        2270|  4.3716e+01|  4.3716e+01|   -8.377847|  7.4468e-05|    0.043804|
|        2280|  4.3716e+01|  4.3716e+01|   -8.380580|  7.3726e-05|    0.043728|
|        2290|  4.3716e+01|  4.3716e+01|   -8.383288|  7.5099e-05|    0.043652|
|        2300|  4.3716e+01|  4.3716e+01|   -8.385979|  7.6179e-05|    0.043577|
|        2310|  4.3716e+01|  4.3716e+01|   -8.388964|  7.7399e-05|    0.043502|
|        2320|  4.3716e+01|  4.3716e+01|   -8.391664|  7.6896e-05|    0.043427|
|        2330|  4.3716e+01|  4.3716e+01|   -8.394088|  7.6283e-05|    0.043353|
|        2340|  4.3716e+01|  4.3716e+01|   -8.396984|  7.5652e-05|    0.043280|
|        2350|  4.3716e+01|  4.3716e+01|   -8.400273|  7.5050e-05|    0.043207|
|        2360|  4.3716e+01|  4.3716e+01|   -8.403386|  7.4470e-05|    0.043134|
|        2370|  4.3716e+01|  4.3716e+01|   -8.406297|  7.3918e-05|    0.043061|
|        2380|  4.3716e+01|  4.3716e+01|   -8.409267|  7.3353e-05|    0.042990|
|        2390|  4.3716e+01|  4.3716e+01|   -8.412678|  7.2758e-05|    0.042918|
|        2400|  4.3716e+01|  4.3716e+01|   -8.416484|  7.2175e-05|    0.042847|
+-----------------------------------------------------------------------+
|        File Writing Summary       |              Filename             |
+-----------------------------------------------------------------------+
|SU2 binary restart                 |restart_flow_G3.dat                |
|Paraview                           |flow_G3.vtu                        |
|Paraview surface                   |surface_flow_G3.vtu                |
+-----------------------------------------------------------------------+
+-----------------------------------------------------------------------------+
|  Inner_Iter|     Min CFL|     Max CFL|      rms[P]|  Cauchy[CD]|          CD|
+-----------------------------------------------------------------------------+
|        2410|  4.3716e+01|  4.3716e+01|   -8.420527|  7.1605e-05|    0.042777|
|        2420|  4.3716e+01|  4.3716e+01|   -8.424318|  7.1027e-05|    0.042707|
|        2430|  4.3716e+01|  4.3716e+01|   -8.427864|  7.0441e-05|    0.042637|
|        2440|  4.3716e+01|  4.3716e+01|   -8.431611|  6.9857e-05|    0.042568|
|        2450|  4.3716e+01|  4.3716e+01|   -8.435570|  6.9281e-05|    0.042499|
|        2460|  4.3716e+01|  4.3716e+01|   -8.439478|  7.0967e-05|    0.042431|
|        2470|  4.3716e+01|  4.3716e+01|   -8.443009|  7.2134e-05|    0.042363|
|        2480|  4.3716e+01|  4.3716e+01|   -8.446269|  7.2786e-05|    0.042295|
|        2490|  4.3716e+01|  4.3716e+01|   -8.449423|  7.2387e-05|    0.042228|
|        2500|  4.3716e+01|  4.3716e+01|   -8.452472|  7.1924e-05|    0.042161|
|        2510|  1.5664e+01|  1.5664e+01|   -8.480112|  6.9957e-05|    0.042132|
|        2520|  8.0824e+00|  8.0824e+00|   -8.437538|  6.8240e-05|    0.042098|
|        2530|  4.1703e+01|  4.1703e+01|   -8.472416|  6.6455e-05|    0.042066|
|        2540|  4.1703e+01|  4.1703e+01|   -8.464410|  6.5890e-05|    0.042005|
|        2550|  4.1703e+01|  4.1703e+01|   -8.465995|  6.5374e-05|    0.041943|
|        2560|  4.1703e+01|  4.1703e+01|   -8.467150|  6.4853e-05|    0.041881|
|        2570|  4.1703e+01|  4.1703e+01|   -8.468492|  6.4337e-05|    0.041819|
|        2580|  4.1703e+01|  4.1703e+01|   -8.469421|  6.3829e-05|    0.041757|
|        2590|  4.1703e+01|  4.1703e+01|   -8.470739|  6.3315e-05|    0.041697|
|        2600|  4.1703e+01|  4.1703e+01|   -8.471920|  6.2788e-05|    0.041637|
+-----------------------------------------------------------------------+
|        File Writing Summary       |              Filename             |
+-----------------------------------------------------------------------+
|SU2 binary restart                 |restart_flow_G3.dat                |
|Paraview                           |flow_G3.vtu                        |
|Paraview surface                   |surface_flow_G3.vtu                |
+-----------------------------------------------------------------------+
+-----------------------------------------------------------------------------+
|  Inner_Iter|     Min CFL|     Max CFL|      rms[P]|  Cauchy[CD]|          CD|
+-----------------------------------------------------------------------------+
|        2610|  4.1703e+01|  4.1703e+01|   -8.473286|  6.2280e-05|    0.041577|
|        2620|  4.1703e+01|  4.1703e+01|   -8.475015|  6.1789e-05|    0.041517|
|        2630|  4.1703e+01|  4.1703e+01|   -8.476453|  6.1295e-05|    0.041457|
|        2640|  4.1703e+01|  4.1703e+01|   -8.477651|  6.0799e-05|    0.041398|
|        2650|  4.1703e+01|  4.1703e+01|   -8.479141|  6.0303e-05|    0.041340|
|        2660|  4.1703e+01|  4.1703e+01|   -8.480948|  5.9815e-05|    0.041282|
|        2670|  4.1703e+01|  4.1703e+01|   -8.482813|  5.9340e-05|    0.041223|
|        2680|  4.1703e+01|  4.1703e+01|   -8.484510|  5.8868e-05|    0.041166|
|        2690|  4.1703e+01|  4.1703e+01|   -8.486074|  5.8390e-05|    0.041109|
|        2700|  4.1703e+01|  4.1703e+01|   -8.487770|  5.7911e-05|    0.041052|
|        2710|  4.1703e+01|  4.1703e+01|   -8.489901|  5.7436e-05|    0.040995|
|        2720|  4.1703e+01|  4.1703e+01|   -8.492228|  5.6964e-05|    0.040939|
|        2730|  4.1703e+01|  4.1703e+01|   -8.494395|  5.6494e-05|    0.040883|
|        2740|  4.1703e+01|  4.1703e+01|   -8.496398|  5.6025e-05|    0.040827|
|        2750|  4.1703e+01|  4.1703e+01|   -8.498476|  5.5559e-05|    0.040772|
|        2760|  4.1703e+01|  4.1703e+01|   -8.500904|  5.6601e-05|    0.040717|
|        2770|  4.1703e+01|  4.1703e+01|   -8.503507|  5.7424e-05|    0.040662|
|        2780|  4.1703e+01|  4.1703e+01|   -8.505949|  5.8334e-05|    0.040608|
|        2790|  4.1703e+01|  4.1703e+01|   -8.508195|  5.8042e-05|    0.040554|
|        2800|  4.1703e+01|  4.1703e+01|   -8.510485|  5.7699e-05|    0.040500|
+-----------------------------------------------------------------------+
|        File Writing Summary       |              Filename             |
+-----------------------------------------------------------------------+
|SU2 binary restart                 |restart_flow_G3.dat                |
|Paraview                           |flow_G3.vtu                        |
|Paraview surface                   |surface_flow_G3.vtu                |
+-----------------------------------------------------------------------+
+-----------------------------------------------------------------------------+
|  Inner_Iter|     Min CFL|     Max CFL|      rms[P]|  Cauchy[CD]|          CD|
+-----------------------------------------------------------------------------+
|        2810|  4.1703e+01|  4.1703e+01|   -8.512965|  5.7338e-05|    0.040447|
|        2820|  4.1703e+01|  4.1703e+01|   -8.515596|  5.6983e-05|    0.040394|
|        2830|  4.1703e+01|  4.1703e+01|   -8.518177|  5.6639e-05|    0.040341|
|        2840|  4.1703e+01|  4.1703e+01|   -8.520674|  5.6305e-05|    0.040289|
|        2850|  4.1703e+01|  4.1703e+01|   -8.523168|  5.5982e-05|    0.040237|
|        2860|  4.1703e+01|  4.1703e+01|   -8.525746|  5.5640e-05|    0.040186|
|        2870|  4.1703e+01|  4.1703e+01|   -8.528398|  5.5288e-05|    0.040135|
|        2880|  4.1703e+01|  4.1703e+01|   -8.530949|  5.4948e-05|    0.040084|
|        2890|  4.1703e+01|  4.1703e+01|   -8.533353|  5.4618e-05|    0.040033|
|        2900|  4.1703e+01|  4.1703e+01|   -8.535782|  5.4291e-05|    0.039983|
|        2910|  4.1703e+01|  4.1703e+01|   -8.538215|  5.3962e-05|    0.039932|
|        2920|  4.1703e+01|  4.1703e+01|   -8.540608|  5.3631e-05|    0.039883|
|        2930|  4.1703e+01|  4.1703e+01|   -8.542944|  5.3304e-05|    0.039833|
|        2940|  4.1703e+01|  4.1703e+01|   -8.545119|  5.2982e-05|    0.039784|
|        2950|  4.1703e+01|  4.1703e+01|   -8.547279|  5.2661e-05|    0.039735|
|        2960|  4.1703e+01|  4.1703e+01|   -8.549423|  5.2339e-05|    0.039687|
|        2970|  4.1703e+01|  4.1703e+01|   -8.551587|  5.2016e-05|    0.039638|
|        2980|  4.1703e+01|  4.1703e+01|   -8.553717|  5.1696e-05|    0.039590|
|        2990|  4.1703e+01|  4.1703e+01|   -8.555745|  5.1378e-05|    0.039543|
|        3000|  4.1703e+01|  4.1703e+01|   -8.557646|  5.1060e-05|    0.039496|
+-----------------------------------------------------------------------+
|        File Writing Summary       |              Filename             |
+-----------------------------------------------------------------------+
|SU2 binary restart                 |restart_flow_G3.dat                |
|Paraview                           |flow_G3.vtu                        |
|Paraview surface                   |surface_flow_G3.vtu                |
+-----------------------------------------------------------------------+
+-----------------------------------------------------------------------------+
|  Inner_Iter|     Min CFL|     Max CFL|      rms[P]|  Cauchy[CD]|          CD|
+-----------------------------------------------------------------------------+
|        3010|  4.1703e+01|  4.1703e+01|   -8.559576|  5.0741e-05|    0.039449|
|        3020|  4.1703e+01|  4.1703e+01|   -8.561487|  5.0422e-05|    0.039402|
|        3030|  4.1703e+01|  4.1703e+01|   -8.563461|  5.0104e-05|    0.039356|
|        3040|  4.1703e+01|  4.1703e+01|   -8.565383|  4.9788e-05|    0.039309|
|        3050|  4.1703e+01|  4.1703e+01|   -8.567326|  4.9473e-05|    0.039264|
|        3060|  4.1703e+01|  4.1703e+01|   -8.569289|  4.9161e-05|    0.039218|
|        3070|  4.1703e+01|  4.1703e+01|   -8.571266|  4.8851e-05|    0.039173|
|        3080|  4.1703e+01|  4.1703e+01|   -8.573267|  4.8545e-05|    0.039128|
|        3090|  4.1703e+01|  4.1703e+01|   -8.575335|  4.8243e-05|    0.039083|
|        3100|  4.1703e+01|  4.1703e+01|   -8.577444|  4.7945e-05|    0.039039|
|        3110|  4.1703e+01|  4.1703e+01|   -8.579515|  4.7648e-05|    0.038995|
|        3120|  4.1703e+01|  4.1703e+01|   -8.581629|  4.7353e-05|    0.038951|
|        3130|  4.1703e+01|  4.1703e+01|   -8.583792|  4.7056e-05|    0.038907|
|        3140|  4.1703e+01|  4.1703e+01|   -8.586056|  4.6759e-05|    0.038864|
|        3150|  4.1703e+01|  4.1703e+01|   -8.588297|  4.6461e-05|    0.038821|
|        3160|  4.1703e+01|  4.1703e+01|   -8.590567|  4.6163e-05|    0.038778|
|        3170|  4.1703e+01|  4.1703e+01|   -8.592853|  4.5865e-05|    0.038736|
|        3180|  4.1703e+01|  4.1703e+01|   -8.595144|  4.5569e-05|    0.038694|
|        3190|  4.1703e+01|  4.1703e+01|   -8.597460|  4.5274e-05|    0.038652|
|        3200|  4.1703e+01|  4.1703e+01|   -8.599809|  4.4981e-05|    0.038611|
+-----------------------------------------------------------------------+
|        File Writing Summary       |              Filename             |
+-----------------------------------------------------------------------+
|SU2 binary restart                 |restart_flow_G3.dat                |
|Paraview                           |flow_G3.vtu                        |
|Paraview surface                   |surface_flow_G3.vtu                |
+-----------------------------------------------------------------------+
+-----------------------------------------------------------------------------+
|  Inner_Iter|     Min CFL|     Max CFL|      rms[P]|  Cauchy[CD]|          CD|
+-----------------------------------------------------------------------------+
|        3210|  4.1703e+01|  4.1703e+01|   -8.602118|  4.4692e-05|    0.038569|
|        3220|  4.1703e+01|  4.1703e+01|   -8.604394|  4.4406e-05|    0.038528|
|        3230|  4.1703e+01|  4.1703e+01|   -8.606683|  4.4123e-05|    0.038487|
|        3240|  4.1703e+01|  4.1703e+01|   -8.608958|  4.3843e-05|    0.038447|
|        3250|  4.1703e+01|  4.1703e+01|   -8.611198|  4.3566e-05|    0.038406|
|        3260|  4.1703e+01|  4.1703e+01|   -8.613455|  4.3291e-05|    0.038366|
|        3270|  4.1703e+01|  4.1703e+01|   -8.615769|  4.3018e-05|    0.038326|
|        3280|  4.1703e+01|  4.1703e+01|   -8.618065|  4.2746e-05|    0.038287|
|        3290|  4.1703e+01|  4.1703e+01|   -8.620348|  4.2474e-05|    0.038248|
|        3300|  4.1703e+01|  4.1703e+01|   -8.622629|  4.2201e-05|    0.038209|
|        3310|  4.1703e+01|  4.1703e+01|   -8.624901|  4.1929e-05|    0.038170|
|        3320|  4.1703e+01|  4.1703e+01|   -8.627158|  4.1657e-05|    0.038131|
|        3330|  4.1703e+01|  4.1703e+01|   -8.629446|  4.1385e-05|    0.038093|
|        3340|  4.1703e+01|  4.1703e+01|   -8.631715|  4.1116e-05|    0.038055|
|        3350|  4.1703e+01|  4.1703e+01|   -8.634010|  4.0848e-05|    0.038018|
|        3360|  4.1703e+01|  4.1703e+01|   -8.636321|  4.0582e-05|    0.037980|
|        3370|  4.1703e+01|  4.1703e+01|   -8.638587|  4.0317e-05|    0.037943|
|        3380|  4.1703e+01|  4.1703e+01|   -8.640808|  4.0055e-05|    0.037906|
|        3390|  4.1703e+01|  4.1703e+01|   -8.642980|  3.9797e-05|    0.037869|
|        3400|  4.1703e+01|  4.1703e+01|   -8.645173|  3.9543e-05|    0.037832|
+-----------------------------------------------------------------------+
|        File Writing Summary       |              Filename             |
+-----------------------------------------------------------------------+
|SU2 binary restart                 |restart_flow_G3.dat                |
|Paraview                           |flow_G3.vtu                        |
|Paraview surface                   |surface_flow_G3.vtu                |
+-----------------------------------------------------------------------+
+-----------------------------------------------------------------------------+
|  Inner_Iter|     Min CFL|     Max CFL|      rms[P]|  Cauchy[CD]|          CD|
+-----------------------------------------------------------------------------+
|        3410|  4.1703e+01|  4.1703e+01|   -8.647421|  3.9291e-05|    0.037796|
|        3420|  4.1703e+01|  4.1703e+01|   -8.649655|  3.9040e-05|    0.037760|
|        3430|  4.1703e+01|  4.1703e+01|   -8.651917|  3.8790e-05|    0.037724|
|        3440|  4.1703e+01|  4.1703e+01|   -8.654155|  3.8542e-05|    0.037689|
|        3450|  4.1703e+01|  4.1703e+01|   -8.656446|  3.8294e-05|    0.037653|
|        3460|  4.1703e+01|  4.1703e+01|   -8.658700|  3.8046e-05|    0.037618|
|        3470|  4.1703e+01|  4.1703e+01|   -8.660909|  3.7799e-05|    0.037583|
|        3480|  4.1703e+01|  4.1703e+01|   -8.663110|  3.7553e-05|    0.037549|
|        3490|  4.1703e+01|  4.1703e+01|   -8.665324|  3.7305e-05|    0.037514|
|        3500|  4.1703e+01|  4.1703e+01|   -8.667590|  3.7057e-05|    0.037480|
|        3510|  4.1703e+01|  4.1703e+01|   -8.669912|  3.6809e-05|    0.037446|
|        3520|  4.1703e+01|  4.1703e+01|   -8.672276|  3.6562e-05|    0.037412|
|        3530|  4.1703e+01|  4.1703e+01|   -8.674599|  3.6318e-05|    0.037379|
|        3540|  4.1703e+01|  4.1703e+01|   -8.676886|  3.6077e-05|    0.037346|
|        3550|  4.1703e+01|  4.1703e+01|   -8.679173|  3.5840e-05|    0.037313|
|        3560|  4.1703e+01|  4.1703e+01|   -8.681499|  3.5605e-05|    0.037280|
|        3570|  4.1703e+01|  4.1703e+01|   -8.683887|  3.5372e-05|    0.037247|
|        3580|  4.1703e+01|  4.1703e+01|   -8.686284|  3.5142e-05|    0.037215|
|        3590|  4.1703e+01|  4.1703e+01|   -8.688656|  3.4913e-05|    0.037182|
|        3600|  4.1703e+01|  4.1703e+01|   -8.690981|  3.4686e-05|    0.037150|
+-----------------------------------------------------------------------+
|        File Writing Summary       |              Filename             |
+-----------------------------------------------------------------------+
|SU2 binary restart                 |restart_flow_G3.dat                |
|Paraview                           |flow_G3.vtu                        |
|Paraview surface                   |surface_flow_G3.vtu                |
+-----------------------------------------------------------------------+
+-----------------------------------------------------------------------------+
|  Inner_Iter|     Min CFL|     Max CFL|      rms[P]|  Cauchy[CD]|          CD|
+-----------------------------------------------------------------------------+
|        3610|  4.1703e+01|  4.1703e+01|   -8.693280|  3.4459e-05|    0.037119|
|        3620|  4.1703e+01|  4.1703e+01|   -8.695607|  3.4232e-05|    0.037087|
|        3630|  4.1703e+01|  4.1703e+01|   -8.698008|  3.4007e-05|    0.037056|
|        3640|  4.1703e+01|  4.1703e+01|   -8.700444|  3.3781e-05|    0.037025|
|        3650|  4.1703e+01|  4.1703e+01|   -8.702844|  3.3555e-05|    0.036994|
|        3660|  4.1703e+01|  4.1703e+01|   -8.705215|  3.3329e-05|    0.036963|
|        3670|  4.1703e+01|  4.1703e+01|   -8.707518|  3.3105e-05|    0.036932|
|        3680|  4.1703e+01|  4.1703e+01|   -8.709813|  3.2883e-05|    0.036902|
|        3690|  4.1703e+01|  4.1703e+01|   -8.712139|  3.2661e-05|    0.036872|
|        3700|  4.1703e+01|  4.1703e+01|   -8.714540|  3.2440e-05|    0.036842|
|        3710|  4.1703e+01|  4.1703e+01|   -8.716955|  3.2221e-05|    0.036813|
|        3720|  4.1703e+01|  4.1703e+01|   -8.719343|  3.2005e-05|    0.036783|
|        3730|  4.1703e+01|  4.1703e+01|   -8.721689|  3.1791e-05|    0.036754|
|        3740|  4.1703e+01|  4.1703e+01|   -8.724037|  3.1581e-05|    0.036725|
|        3750|  4.1703e+01|  4.1703e+01|   -8.726401|  3.1373e-05|    0.036696|
|        3760|  4.1703e+01|  4.1703e+01|   -8.728750|  3.1167e-05|    0.036667|
|        3770|  4.1703e+01|  4.1703e+01|   -8.731101|  3.0963e-05|    0.036638|
|        3780|  4.1703e+01|  4.1703e+01|   -8.733471|  3.0760e-05|    0.036610|
|        3790|  4.1703e+01|  4.1703e+01|   -8.735857|  3.0559e-05|    0.036582|
|        3800|  4.1703e+01|  4.1703e+01|   -8.738246|  3.0359e-05|    0.036554|
+-----------------------------------------------------------------------+
|        File Writing Summary       |              Filename             |
+-----------------------------------------------------------------------+
|SU2 binary restart                 |restart_flow_G3.dat                |
|Paraview                           |flow_G3.vtu                        |
|Paraview surface                   |surface_flow_G3.vtu                |
+-----------------------------------------------------------------------+
+-----------------------------------------------------------------------------+
|  Inner_Iter|     Min CFL|     Max CFL|      rms[P]|  Cauchy[CD]|          CD|
+-----------------------------------------------------------------------------+
|        3810|  4.1703e+01|  4.1703e+01|   -8.740655|  3.0160e-05|    0.036526|
|        3820|  4.1703e+01|  4.1703e+01|   -8.743066|  2.9961e-05|    0.036498|
|        3830|  4.1703e+01|  4.1703e+01|   -8.745488|  2.9762e-05|    0.036471|
|        3840|  4.1703e+01|  4.1703e+01|   -8.747904|  2.9563e-05|    0.036443|
|        3850|  4.1703e+01|  4.1703e+01|   -8.750326|  2.9363e-05|    0.036416|
|        3860|  4.1703e+01|  4.1703e+01|   -8.752741|  2.9163e-05|    0.036390|
|        3870|  4.1703e+01|  4.1703e+01|   -8.755176|  2.8963e-05|    0.036363|
|        3880|  4.1703e+01|  4.1703e+01|   -8.757605|  2.8765e-05|    0.036337|
|        3890|  4.1703e+01|  4.1703e+01|   -8.760034|  2.8569e-05|    0.036310|
|        3900|  4.1703e+01|  4.1703e+01|   -8.762469|  2.8376e-05|    0.036284|
|        3910|  4.1703e+01|  4.1703e+01|   -8.764891|  2.8186e-05|    0.036258|
|        3920|  4.1703e+01|  4.1703e+01|   -8.767328|  2.7997e-05|    0.036232|
|        3930|  4.1703e+01|  4.1703e+01|   -8.769775|  2.7810e-05|    0.036207|
|        3940|  4.1703e+01|  4.1703e+01|   -8.772208|  2.7624e-05|    0.036181|
|        3950|  4.1703e+01|  4.1703e+01|   -8.774642|  2.7440e-05|    0.036156|
|        3960|  4.1703e+01|  4.1703e+01|   -8.777123|  2.7258e-05|    0.036131|
|        3970|  4.1703e+01|  4.1703e+01|   -8.779586|  2.7077e-05|    0.036106|
|        3980|  4.1703e+01|  4.1703e+01|   -8.782081|  2.6896e-05|    0.036081|
|        3990|  4.1703e+01|  4.1703e+01|   -8.784624|  2.6715e-05|    0.036057|
|        4000|  4.1703e+01|  4.1703e+01|   -8.787153|  2.6535e-05|    0.036032|
+-----------------------------------------------------------------------+
|        File Writing Summary       |              Filename             |
+-----------------------------------------------------------------------+
|SU2 binary restart                 |restart_flow_G3.dat                |
|Paraview                           |flow_G3.vtu                        |
|Paraview surface                   |surface_flow_G3.vtu                |
+-----------------------------------------------------------------------+
+-----------------------------------------------------------------------------+
|  Inner_Iter|     Min CFL|     Max CFL|      rms[P]|  Cauchy[CD]|          CD|
+-----------------------------------------------------------------------------+
|        4010|  4.1703e+01|  4.1703e+01|   -8.789679|  2.6356e-05|    0.036008|
|        4020|  4.1703e+01|  4.1703e+01|   -8.792145|  2.6177e-05|    0.035984|
|        4030|  4.1703e+01|  4.1703e+01|   -8.794619|  2.5999e-05|    0.035960|
|        4040|  4.1703e+01|  4.1703e+01|   -8.797083|  2.5820e-05|    0.035936|
|        4050|  4.1703e+01|  4.1703e+01|   -8.799550|  2.5642e-05|    0.035913|
|        4060|  4.1703e+01|  4.1703e+01|   -8.802021|  2.5465e-05|    0.035889|
|        4070|  4.1703e+01|  4.1703e+01|   -8.804532|  2.5289e-05|    0.035866|
|        4080|  4.1703e+01|  4.1703e+01|   -8.807082|  2.5114e-05|    0.035843|
|        4090|  4.1703e+01|  4.1703e+01|   -8.809629|  2.4941e-05|    0.035820|
|        4100|  4.1703e+01|  4.1703e+01|   -8.812147|  2.4770e-05|    0.035797|
|        4110|  4.1703e+01|  4.1703e+01|   -8.814667|  2.4601e-05|    0.035775|
|        4120|  4.1703e+01|  4.1703e+01|   -8.817186|  2.4435e-05|    0.035752|
|        4130|  4.1703e+01|  4.1703e+01|   -8.819707|  2.4271e-05|    0.035730|
|        4140|  4.1703e+01|  4.1703e+01|   -8.822215|  2.4107e-05|    0.035708|
|        4150|  4.1703e+01|  4.1703e+01|   -8.824715|  2.3943e-05|    0.035686|
|        4160|  4.1703e+01|  4.1703e+01|   -8.827213|  2.3780e-05|    0.035664|
|        4170|  4.1703e+01|  4.1703e+01|   -8.829721|  2.3618e-05|    0.035642|
|        4180|  4.1703e+01|  4.1703e+01|   -8.832243|  2.3458e-05|    0.035620|
|        4190|  4.1703e+01|  4.1703e+01|   -8.834797|  2.3299e-05|    0.035599|
|        4200|  4.1703e+01|  4.1703e+01|   -8.837324|  2.3141e-05|    0.035578|
+-----------------------------------------------------------------------+
|        File Writing Summary       |              Filename             |
+-----------------------------------------------------------------------+
|SU2 binary restart                 |restart_flow_G3.dat                |
|Paraview                           |flow_G3.vtu                        |
|Paraview surface                   |surface_flow_G3.vtu                |
+-----------------------------------------------------------------------+
+-----------------------------------------------------------------------------+
|  Inner_Iter|     Min CFL|     Max CFL|      rms[P]|  Cauchy[CD]|          CD|
+-----------------------------------------------------------------------------+
|        4210|  4.1703e+01|  4.1703e+01|   -8.839851|  2.2984e-05|    0.035557|
|        4220|  4.1703e+01|  4.1703e+01|   -8.842388|  2.2827e-05|    0.035536|
|        4230|  4.1703e+01|  4.1703e+01|   -8.844945|  2.2671e-05|    0.035515|
|        4240|  4.1703e+01|  4.1703e+01|   -8.847468|  2.2516e-05|    0.035494|
|        4250|  4.1703e+01|  4.1703e+01|   -8.849984|  2.2361e-05|    0.035473|
|        4260|  4.1703e+01|  4.1703e+01|   -8.852473|  2.2206e-05|    0.035453|
|        4270|  4.1703e+01|  4.1703e+01|   -8.854982|  2.2052e-05|    0.035433|
|        4280|  4.1703e+01|  4.1703e+01|   -8.857506|  2.1898e-05|    0.035413|
|        4290|  4.1703e+01|  4.1703e+01|   -8.860053|  2.1746e-05|    0.035393|
|        4300|  4.1703e+01|  4.1703e+01|   -8.862663|  2.1595e-05|    0.035373|
|        4310|  4.1703e+01|  4.1703e+01|   -8.865273|  2.1446e-05|    0.035353|
|        4320|  4.1703e+01|  4.1703e+01|   -8.867875|  2.1298e-05|    0.035333|
|        4330|  4.1703e+01|  4.1703e+01|   -8.870441|  2.1152e-05|    0.035314|
|        4340|  4.1703e+01|  4.1703e+01|   -8.873008|  2.1008e-05|    0.035295|
|        4350|  4.1703e+01|  4.1703e+01|   -8.875592|  2.0865e-05|    0.035275|
|        4360|  4.1703e+01|  4.1703e+01|   -8.878212|  2.0723e-05|    0.035256|
|        4370|  4.1703e+01|  4.1703e+01|   -8.880855|  2.0581e-05|    0.035238|
|        4380|  4.1703e+01|  4.1703e+01|   -8.883492|  2.0440e-05|    0.035219|
|        4390|  4.1703e+01|  4.1703e+01|   -8.886110|  2.0301e-05|    0.035200|
|        4400|  4.1703e+01|  4.1703e+01|   -8.888725|  2.0163e-05|    0.035182|
+-----------------------------------------------------------------------+
|        File Writing Summary       |              Filename             |
+-----------------------------------------------------------------------+
|SU2 binary restart                 |restart_flow_G3.dat                |
|Paraview                           |flow_G3.vtu                        |
|Paraview surface                   |surface_flow_G3.vtu                |
+-----------------------------------------------------------------------+
+-----------------------------------------------------------------------------+
|  Inner_Iter|     Min CFL|     Max CFL|      rms[P]|  Cauchy[CD]|          CD|
+-----------------------------------------------------------------------------+
|        4410|  4.1703e+01|  4.1703e+01|   -8.891353|  2.0026e-05|    0.035163|
|        4420|  4.1703e+01|  4.1703e+01|   -8.894012|  1.9890e-05|    0.035145|
|        4430|  4.1703e+01|  4.1703e+01|   -8.896674|  1.9754e-05|    0.035127|
|        4440|  4.1703e+01|  4.1703e+01|   -8.899355|  1.9620e-05|    0.035108|
|        4450|  4.1703e+01|  4.1703e+01|   -8.901997|  1.9486e-05|    0.035091|
|        4460|  4.1703e+01|  4.1703e+01|   -8.904595|  1.9352e-05|    0.035073|
|        4470|  4.1703e+01|  4.1703e+01|   -8.907222|  1.9220e-05|    0.035055|
|        4480|  4.1703e+01|  4.1703e+01|   -8.909871|  1.9089e-05|    0.035037|
|        4490|  4.1703e+01|  4.1703e+01|   -8.912571|  1.8958e-05|    0.035020|
|        4500|  4.1703e+01|  4.1703e+01|   -8.915309|  1.8829e-05|    0.035003|
|        4510|  4.1703e+01|  4.1703e+01|   -8.918010|  1.8699e-05|    0.034985|
|        4520|  4.1703e+01|  4.1703e+01|   -8.920718|  1.8570e-05|    0.034968|
|        4530|  4.1703e+01|  4.1703e+01|   -8.923394|  1.8442e-05|    0.034951|
|        4540|  4.1703e+01|  4.1703e+01|   -8.926058|  1.8314e-05|    0.034935|
|        4550|  4.1703e+01|  4.1703e+01|   -8.928737|  1.8185e-05|    0.034918|
|        4560|  4.1703e+01|  4.1703e+01|   -8.931439|  1.8057e-05|    0.034902|
|        4570|  4.1703e+01|  4.1703e+01|   -8.934147|  1.7929e-05|    0.034885|
|        4580|  4.1703e+01|  4.1703e+01|   -8.936844|  1.7802e-05|    0.034869|
|        4590|  4.1703e+01|  4.1703e+01|   -8.939558|  1.7676e-05|    0.034853|
|        4600|  4.1703e+01|  4.1703e+01|   -8.942264|  1.7551e-05|    0.034837|
+-----------------------------------------------------------------------+
|        File Writing Summary       |              Filename             |
+-----------------------------------------------------------------------+
|SU2 binary restart                 |restart_flow_G3.dat                |
|Paraview                           |flow_G3.vtu                        |
|Paraview surface                   |surface_flow_G3.vtu                |
+-----------------------------------------------------------------------+
+-----------------------------------------------------------------------------+
|  Inner_Iter|     Min CFL|     Max CFL|      rms[P]|  Cauchy[CD]|          CD|
+-----------------------------------------------------------------------------+
|        4610|  4.1703e+01|  4.1703e+01|   -8.944949|  1.7427e-05|    0.034821|
|        4620|  4.1703e+01|  4.1703e+01|   -8.947592|  1.7305e-05|    0.034805|
|        4630|  4.1703e+01|  4.1703e+01|   -8.950231|  1.7184e-05|    0.034789|
|        4640|  4.1703e+01|  4.1703e+01|   -8.952879|  1.7064e-05|    0.034773|
|        4650|  4.1703e+01|  4.1703e+01|   -8.955545|  1.6944e-05|    0.034758|
|        4660|  4.1703e+01|  4.1703e+01|   -8.958219|  1.6825e-05|    0.034742|
|        4670|  4.1703e+01|  4.1703e+01|   -8.960907|  1.6707e-05|    0.034727|
|        4680|  4.1703e+01|  4.1703e+01|   -8.963597|  1.6590e-05|    0.034712|
|        4690|  4.1703e+01|  4.1703e+01|   -8.966307|  1.6473e-05|    0.034697|
|        4700|  4.1703e+01|  4.1703e+01|   -8.969022|  1.6357e-05|    0.034682|
|        4710|  4.1703e+01|  4.1703e+01|   -8.971749|  1.6242e-05|    0.034667|
|        4720|  4.1703e+01|  4.1703e+01|   -8.974486|  1.6127e-05|    0.034652|
|        4730|  4.1703e+01|  4.1703e+01|   -8.977235|  1.6014e-05|    0.034637|
|        4740|  4.1703e+01|  4.1703e+01|   -8.979972|  1.5901e-05|    0.034622|
|        4750|  4.1703e+01|  4.1703e+01|   -8.982692|  1.5790e-05|    0.034608|
|        4760|  4.1703e+01|  4.1703e+01|   -8.985423|  1.5680e-05|    0.034593|
|        4770|  4.1703e+01|  4.1703e+01|   -8.988182|  1.5572e-05|    0.034579|
|        4780|  4.1703e+01|  4.1703e+01|   -8.990958|  1.5465e-05|    0.034565|
|        4790|  4.1703e+01|  4.1703e+01|   -8.993757|  1.5360e-05|    0.034551|
|        4800|  4.1703e+01|  4.1703e+01|   -8.996533|  1.5256e-05|    0.034537|
+-----------------------------------------------------------------------+
|        File Writing Summary       |              Filename             |
+-----------------------------------------------------------------------+
|SU2 binary restart                 |restart_flow_G3.dat                |
|Paraview                           |flow_G3.vtu                        |
|Paraview surface                   |surface_flow_G3.vtu                |
+-----------------------------------------------------------------------+
+-----------------------------------------------------------------------------+
|  Inner_Iter|     Min CFL|     Max CFL|      rms[P]|  Cauchy[CD]|          CD|
+-----------------------------------------------------------------------------+
|        4810|  4.1703e+01|  4.1703e+01|   -8.999326|  1.5153e-05|    0.034523|
|        4820|  4.1703e+01|  4.1703e+01|   -9.002114|  1.5052e-05|    0.034509|
|        4830|  4.1703e+01|  4.1703e+01|   -9.004930|  1.4951e-05|    0.034495|
|        4840|  4.1703e+01|  4.1703e+01|   -9.007750|  1.4850e-05|    0.034482|
|        4850|  4.1703e+01|  4.1703e+01|   -9.010554|  1.4749e-05|    0.034468|
|        4860|  4.1703e+01|  4.1703e+01|   -9.013342|  1.4648e-05|    0.034455|
|        4870|  4.1703e+01|  4.1703e+01|   -9.016114|  1.4546e-05|    0.034441|
|        4880|  4.1703e+01|  4.1703e+01|   -9.018878|  1.4444e-05|    0.034428|
|        4890|  4.1703e+01|  4.1703e+01|   -9.021644|  1.4342e-05|    0.034415|
|        4900|  4.1703e+01|  4.1703e+01|   -9.024431|  1.4241e-05|    0.034402|
|        4910|  4.1703e+01|  4.1703e+01|   -9.027245|  1.4139e-05|    0.034389|
|        4920|  4.1703e+01|  4.1703e+01|   -9.030048|  1.4037e-05|    0.034376|
|        4930|  4.1703e+01|  4.1703e+01|   -9.032818|  1.3935e-05|    0.034363|
|        4940|  4.1703e+01|  4.1703e+01|   -9.035554|  1.3834e-05|    0.034351|
|        4950|  4.1703e+01|  4.1703e+01|   -9.038287|  1.3734e-05|    0.034338|
|        4960|  4.1703e+01|  4.1703e+01|   -9.041039|  1.3634e-05|    0.034326|
|        4970|  4.1703e+01|  4.1703e+01|   -9.043828|  1.3535e-05|    0.034313|
|        4980|  4.1703e+01|  4.1703e+01|   -9.046620|  1.3436e-05|    0.034301|
|        4990|  4.1703e+01|  4.1703e+01|   -9.049415|  1.3337e-05|    0.034289|
|        5000|  4.1703e+01|  4.1703e+01|   -9.052224|  1.3240e-05|    0.034277|
+-----------------------------------------------------------------------+
|        File Writing Summary       |              Filename             |
+-----------------------------------------------------------------------+
|SU2 binary restart                 |restart_flow_G3.dat                |
|Paraview                           |flow_G3.vtu                        |
|Paraview surface                   |surface_flow_G3.vtu                |
+-----------------------------------------------------------------------+
+-----------------------------------------------------------------------------+
|  Inner_Iter|     Min CFL|     Max CFL|      rms[P]|  Cauchy[CD]|          CD|
+-----------------------------------------------------------------------------+
|        5010|  4.1703e+01|  4.1703e+01|   -9.055054|  1.3143e-05|    0.034265|
|        5020|  4.1703e+01|  4.1703e+01|   -9.057896|  1.3048e-05|    0.034253|
|        5030|  4.1703e+01|  4.1703e+01|   -9.060739|  1.2953e-05|    0.034241|
|        5040|  4.1703e+01|  4.1703e+01|   -9.063570|  1.2860e-05|    0.034229|
|        5050|  4.1703e+01|  4.1703e+01|   -9.066413|  1.2768e-05|    0.034217|
|        5060|  4.1703e+01|  4.1703e+01|   -9.069275|  1.2677e-05|    0.034206|
|        5070|  4.1703e+01|  4.1703e+01|   -9.072139|  1.2588e-05|    0.034194|
|        5080|  4.1703e+01|  4.1703e+01|   -9.075018|  1.2500e-05|    0.034183|
|        5090|  4.1703e+01|  4.1703e+01|   -9.077918|  1.2413e-05|    0.034171|
|        5100|  4.1703e+01|  4.1703e+01|   -9.080815|  1.2327e-05|    0.034160|
|        5110|  4.1703e+01|  4.1703e+01|   -9.083708|  1.2242e-05|    0.034149|
|        5120|  4.1703e+01|  4.1703e+01|   -9.086607|  1.2157e-05|    0.034137|
|        5130|  4.1703e+01|  4.1703e+01|   -9.089492|  1.2074e-05|    0.034126|
|        5140|  4.1703e+01|  4.1703e+01|   -9.092390|  1.1990e-05|    0.034115|
|        5150|  4.1703e+01|  4.1703e+01|   -9.095301|  1.1907e-05|    0.034104|
|        5160|  4.1703e+01|  4.1703e+01|   -9.098216|  1.1825e-05|    0.034093|
|        5170|  4.1703e+01|  4.1703e+01|   -9.101125|  1.1744e-05|    0.034083|
|        5180|  4.1703e+01|  4.1703e+01|   -9.104034|  1.1663e-05|    0.034072|
|        5190|  4.1703e+01|  4.1703e+01|   -9.106946|  1.1582e-05|    0.034061|
|        5200|  4.1703e+01|  4.1703e+01|   -9.109852|  1.1502e-05|    0.034051|
+-----------------------------------------------------------------------+
|        File Writing Summary       |              Filename             |
+-----------------------------------------------------------------------+
|SU2 binary restart                 |restart_flow_G3.dat                |
|Paraview                           |flow_G3.vtu                        |
|Paraview surface                   |surface_flow_G3.vtu                |
+-----------------------------------------------------------------------+
+-----------------------------------------------------------------------------+
|  Inner_Iter|     Min CFL|     Max CFL|      rms[P]|  Cauchy[CD]|          CD|
+-----------------------------------------------------------------------------+
|        5210|  4.1703e+01|  4.1703e+01|   -9.112737|  1.1422e-05|    0.034040|
|        5220|  4.1703e+01|  4.1703e+01|   -9.115607|  1.1342e-05|    0.034030|
|        5230|  4.1703e+01|  4.1703e+01|   -9.118458|  1.1264e-05|    0.034020|
|        5240|  4.1703e+01|  4.1703e+01|   -9.121318|  1.1186e-05|    0.034009|
|        5250|  4.1703e+01|  4.1703e+01|   -9.124167|  1.1108e-05|    0.033999|
|        5260|  4.1703e+01|  4.1703e+01|   -9.127028|  1.1030e-05|    0.033989|
|        5270|  4.1703e+01|  4.1703e+01|   -9.129907|  1.0953e-05|    0.033979|
|        5280|  4.1703e+01|  4.1703e+01|   -9.132760|  1.0876e-05|    0.033969|
|        5290|  4.1703e+01|  4.1703e+01|   -9.135594|  1.0800e-05|    0.033959|
|        5300|  4.1703e+01|  4.1703e+01|   -9.138420|  1.0724e-05|    0.033949|
|        5310|  4.1703e+01|  4.1703e+01|   -9.141253|  1.0647e-05|    0.033940|
|        5320|  4.1703e+01|  4.1703e+01|   -9.144116|  1.0571e-05|    0.033930|
|        5330|  4.1703e+01|  4.1703e+01|   -9.147003|  1.0495e-05|    0.033920|
|        5340|  4.1703e+01|  4.1703e+01|   -9.149890|  1.0419e-05|    0.033911|
|        5350|  4.1703e+01|  4.1703e+01|   -9.152787|  1.0344e-05|    0.033901|
|        5360|  4.1703e+01|  4.1703e+01|   -9.155704|  1.0269e-05|    0.033892|
|        5370|  4.1703e+01|  4.1703e+01|   -9.158638|  1.0196e-05|    0.033882|
|        5380|  4.1703e+01|  4.1703e+01|   -9.161599|  1.0123e-05|    0.033873|
|        5390|  4.1703e+01|  4.1703e+01|   -9.164581|  1.0052e-05|    0.033864|
|        5400|  4.1703e+01|  4.1703e+01|   -9.167571|  9.9813e-06|    0.033855|
+-----------------------------------------------------------------------+
|        File Writing Summary       |              Filename             |
+-----------------------------------------------------------------------+
|SU2 binary restart                 |restart_flow_G3.dat                |
|Paraview                           |flow_G3.vtu                        |
|Paraview surface                   |surface_flow_G3.vtu                |
+-----------------------------------------------------------------------+
+-----------------------------------------------------------------------------+
|  Inner_Iter|     Min CFL|     Max CFL|      rms[P]|  Cauchy[CD]|          CD|
+-----------------------------------------------------------------------------+
|        5410|  4.1703e+01|  4.1703e+01|   -9.170559|  9.9113e-06|    0.033846|
|        5420|  4.1703e+01|  4.1703e+01|   -9.173564|  9.8417e-06|    0.033837|
|        5430|  4.1703e+01|  4.1703e+01|   -9.176554|  9.7726e-06|    0.033828|
|        5440|  4.1703e+01|  4.1703e+01|   -9.179563|  9.7042e-06|    0.033819|
|        5450|  4.1703e+01|  4.1703e+01|   -9.182601|  9.6363e-06|    0.033810|
|        5460|  4.1703e+01|  4.1703e+01|   -9.185658|  9.5687e-06|    0.033801|
|        5470|  4.1703e+01|  4.1703e+01|   -9.188727|  9.5012e-06|    0.033792|
|        5480|  4.1703e+01|  4.1703e+01|   -9.191797|  9.4337e-06|    0.033784|
|        5490|  4.1703e+01|  4.1703e+01|   -9.194863|  9.3662e-06|    0.033775|
|        5500|  4.1703e+01|  4.1703e+01|   -9.197933|  9.2988e-06|    0.033767|
|        5510|  4.1703e+01|  4.1703e+01|   -9.201003|  9.2314e-06|    0.033758|
|        5520|  4.1703e+01|  4.1703e+01|   -9.204046|  9.1640e-06|    0.033750|
|        5530|  4.1703e+01|  4.1703e+01|   -9.207065|  9.0966e-06|    0.033742|
|        5540|  4.1703e+01|  4.1703e+01|   -9.210085|  9.0293e-06|    0.033733|
|        5550|  4.1703e+01|  4.1703e+01|   -9.213112|  8.9620e-06|    0.033725|
|        5560|  4.1703e+01|  4.1703e+01|   -9.216137|  8.8949e-06|    0.033717|
|        5570|  4.1703e+01|  4.1703e+01|   -9.219119|  8.8281e-06|    0.033709|
|        5580|  4.1703e+01|  4.1703e+01|   -9.222085|  8.7616e-06|    0.033701|
|        5590|  4.1703e+01|  4.1703e+01|   -9.225029|  8.6954e-06|    0.033693|
|        5600|  4.1703e+01|  4.1703e+01|   -9.227960|  8.6295e-06|    0.033685|
+-----------------------------------------------------------------------+
|        File Writing Summary       |              Filename             |
+-----------------------------------------------------------------------+
|SU2 binary restart                 |restart_flow_G3.dat                |
|Paraview                           |flow_G3.vtu                        |
|Paraview surface                   |surface_flow_G3.vtu                |
+-----------------------------------------------------------------------+
+-----------------------------------------------------------------------------+
|  Inner_Iter|     Min CFL|     Max CFL|      rms[P]|  Cauchy[CD]|          CD|
+-----------------------------------------------------------------------------+
|        5610|  4.1703e+01|  4.1703e+01|   -9.230885|  8.5638e-06|    0.033678|
|        5620|  4.1703e+01|  4.1703e+01|   -9.233814|  8.4982e-06|    0.033670|
|        5630|  4.1703e+01|  4.1703e+01|   -9.236756|  8.4327e-06|    0.033662|
|        5640|  4.1703e+01|  4.1703e+01|   -9.239698|  8.3676e-06|    0.033655|
|        5650|  4.1703e+01|  4.1703e+01|   -9.242615|  8.3031e-06|    0.033647|
|        5660|  4.1703e+01|  4.1703e+01|   -9.245518|  8.2393e-06|    0.033640|
|        5670|  4.1703e+01|  4.1703e+01|   -9.248413|  8.1764e-06|    0.033632|
|        5680|  4.1703e+01|  4.1703e+01|   -9.251324|  8.1143e-06|    0.033625|
|        5690|  4.1703e+01|  4.1703e+01|   -9.254271|  8.0531e-06|    0.033617|
|        5700|  4.1703e+01|  4.1703e+01|   -9.257217|  7.9927e-06|    0.033610|
|        5710|  4.1703e+01|  4.1703e+01|   -9.260157|  7.9335e-06|    0.033603|
|        5720|  4.1703e+01|  4.1703e+01|   -9.263084|  7.8754e-06|    0.033595|
|        5730|  4.1703e+01|  4.1703e+01|   -9.266024|  7.8184e-06|    0.033588|
[...]
|        6990|  4.1703e+01|  4.1703e+01|   -9.660709|  3.1122e-06|    0.032998|
|        7000|  4.1703e+01|  4.1703e+01|   -9.663852|  3.0886e-06|    0.032996|
+-----------------------------------------------------------------------+
|        File Writing Summary       |              Filename             |
+-----------------------------------------------------------------------+
|SU2 binary restart                 |restart_flow_G3.dat                |
|Paraview                           |flow_G3.vtu                        |
|Paraview surface                   |surface_flow_G3.vtu                |
+-----------------------------------------------------------------------+
+-----------------------------------------------------------------------------+
|  Inner_Iter|     Min CFL|     Max CFL|      rms[P]|  Cauchy[CD]|          CD|
+-----------------------------------------------------------------------------+
|        7010|  4.1703e+01|  4.1703e+01|   -9.667004|  3.0652e-06|    0.032993|
|        7020|  4.1703e+01|  4.1703e+01|   -9.670160|  3.0420e-06|    0.032990|
|        7030|  4.1703e+01|  4.1703e+01|   -9.673314|  3.0190e-06|    0.032987|
|        7040|  4.1703e+01|  4.1703e+01|   -9.676460|  2.9962e-06|    0.032985|
|        7050|  4.1703e+01|  4.1703e+01|   -9.679599|  2.9736e-06|    0.032982|
|        7060|  4.1703e+01|  4.1703e+01|   -9.682736|  2.9512e-06|    0.032979|
|        7070|  4.1703e+01|  4.1703e+01|   -9.685874|  2.9289e-06|    0.032976|
|        7080|  4.1703e+01|  4.1703e+01|   -9.689020|  2.9069e-06|    0.032974|
|        7090|  4.1703e+01|  4.1703e+01|   -9.692177|  2.8851e-06|    0.032971|
|        7100|  4.1703e+01|  4.1703e+01|   -9.695347|  2.8635e-06|    0.032969|
|        7110|  4.1703e+01|  4.1703e+01|   -9.698532|  2.8421e-06|    0.032966|
|        7120|  4.1703e+01|  4.1703e+01|   -9.701730|  2.8209e-06|    0.032963|
|        7130|  4.1703e+01|  4.1703e+01|   -9.704934|  2.8000e-06|    0.032961|
|        7140|  4.1703e+01|  4.1703e+01|   -9.708132|  2.7793e-06|    0.032958|
|        7150|  4.1703e+01|  4.1703e+01|   -9.711335|  2.7587e-06|    0.032956|
|        7160|  4.1703e+01|  4.1703e+01|   -9.714539|  2.7384e-06|    0.032953|
|        7170|  4.1703e+01|  4.1703e+01|   -9.717748|  2.7182e-06|    0.032951|
|        7180|  4.1703e+01|  4.1703e+01|   -9.720974|  2.6982e-06|    0.032948|
|        7190|  4.1703e+01|  4.1703e+01|   -9.724213|  2.6784e-06|    0.032946|
|        7200|  4.1703e+01|  4.1703e+01|   -9.727460|  2.6588e-06|    0.032943|
+-----------------------------------------------------------------------+
|        File Writing Summary       |              Filename             |
+-----------------------------------------------------------------------+
|SU2 binary restart                 |restart_flow_G3.dat                |
|Paraview                           |flow_G3.vtu                        |
|Paraview surface                   |surface_flow_G3.vtu                |
+-----------------------------------------------------------------------+
+-----------------------------------------------------------------------------+
|  Inner_Iter|     Min CFL|     Max CFL|      rms[P]|  Cauchy[CD]|          CD|
+-----------------------------------------------------------------------------+
|        7210|  4.1703e+01|  4.1703e+01|   -9.730712|  2.6393e-06|    0.032941|
|        7220|  4.1703e+01|  4.1703e+01|   -9.733969|  2.6199e-06|    0.032939|
|        7230|  4.1703e+01|  4.1703e+01|   -9.737226|  2.6008e-06|    0.032936|
|        7240|  4.1703e+01|  4.1703e+01|   -9.740484|  2.5818e-06|    0.032934|
|        7250|  4.1703e+01|  4.1703e+01|   -9.743751|  2.5631e-06|    0.032931|
|        7260|  4.1703e+01|  4.1703e+01|   -9.747019|  2.5446e-06|    0.032929|
|        7270|  4.1703e+01|  4.1703e+01|   -9.750294|  2.5262e-06|    0.032927|
|        7280|  4.1703e+01|  4.1703e+01|   -9.753567|  2.5080e-06|    0.032925|
|        7290|  4.1703e+01|  4.1703e+01|   -9.756838|  2.4899e-06|    0.032922|
|        7300|  4.1703e+01|  4.1703e+01|   -9.760107|  2.4720e-06|    0.032920|
|        7310|  4.1703e+01|  4.1703e+01|   -9.763375|  2.4542e-06|    0.032918|
|        7320|  4.1703e+01|  4.1703e+01|   -9.766643|  2.4365e-06|    0.032916|
|        7330|  4.1703e+01|  4.1703e+01|   -9.769910|  2.4190e-06|    0.032913|
|        7340|  4.1703e+01|  4.1703e+01|   -9.773176|  2.4015e-06|    0.032911|
|        7350|  4.1703e+01|  4.1703e+01|   -9.776440|  2.3842e-06|    0.032909|
|        7360|  4.1703e+01|  4.1703e+01|   -9.779706|  2.3670e-06|    0.032907|
|        7370|  4.1703e+01|  4.1703e+01|   -9.782981|  2.3498e-06|    0.032905|
|        7380|  4.1703e+01|  4.1703e+01|   -9.786255|  2.3328e-06|    0.032902|
|        7390|  4.1703e+01|  4.1703e+01|   -9.789522|  2.3159e-06|    0.032900|
|        7400|  4.1703e+01|  4.1703e+01|   -9.792783|  2.2990e-06|    0.032898|
+-----------------------------------------------------------------------+
|        File Writing Summary       |              Filename             |
+-----------------------------------------------------------------------+
|SU2 binary restart                 |restart_flow_G3.dat                |
|Paraview                           |flow_G3.vtu                        |
|Paraview surface                   |surface_flow_G3.vtu                |
+-----------------------------------------------------------------------+
+-----------------------------------------------------------------------------+
|  Inner_Iter|     Min CFL|     Max CFL|      rms[P]|  Cauchy[CD]|          CD|
+-----------------------------------------------------------------------------+
|        7410|  4.1703e+01|  4.1703e+01|   -9.796042|  2.2823e-06|    0.032896|
|        7420|  4.1703e+01|  4.1703e+01|   -9.799304|  2.2656e-06|    0.032894|
|        7430|  4.1703e+01|  4.1703e+01|   -9.802574|  2.2491e-06|    0.032892|
|        7440|  4.1703e+01|  4.1703e+01|   -9.805845|  2.2326e-06|    0.032890|
|        7450|  4.1703e+01|  4.1703e+01|   -9.809112|  2.2163e-06|    0.032888|
|        7460|  4.1703e+01|  4.1703e+01|   -9.812378|  2.2000e-06|    0.032886|
|        7470|  4.1703e+01|  4.1703e+01|   -9.815644|  2.1839e-06|    0.032884|
|        7480|  4.1703e+01|  4.1703e+01|   -9.818914|  2.1678e-06|    0.032882|
|        7490|  4.1703e+01|  4.1703e+01|   -9.822187|  2.1518e-06|    0.032880|
|        7500|  4.1703e+01|  4.1703e+01|   -9.825466|  2.1359e-06|    0.032878|
|        7510|  4.1703e+01|  4.1703e+01|   -9.828748|  2.1202e-06|    0.032876|
|        7520|  4.1703e+01|  4.1703e+01|   -9.832038|  2.1045e-06|    0.032874|
|        7530|  4.1703e+01|  4.1703e+01|   -9.835328|  2.0888e-06|    0.032872|
|        7540|  4.1703e+01|  4.1703e+01|   -9.838621|  2.0733e-06|    0.032870|
|        7550|  4.1703e+01|  4.1703e+01|   -9.841917|  2.0578e-06|    0.032869|
|        7560|  4.1703e+01|  4.1703e+01|   -9.845218|  2.0424e-06|    0.032867|
|        7570|  4.1703e+01|  4.1703e+01|   -9.848526|  2.0271e-06|    0.032865|
|        7580|  4.1703e+01|  4.1703e+01|   -9.851839|  2.0119e-06|    0.032863|
|        7590|  4.1703e+01|  4.1703e+01|   -9.855153|  1.9968e-06|    0.032861|
|        7600|  4.1703e+01|  4.1703e+01|   -9.858463|  1.9818e-06|    0.032859|
+-----------------------------------------------------------------------+
|        File Writing Summary       |              Filename             |
+-----------------------------------------------------------------------+
|SU2 binary restart                 |restart_flow_G3.dat                |
|Paraview                           |flow_G3.vtu                        |
|Paraview surface                   |surface_flow_G3.vtu                |
+-----------------------------------------------------------------------+
+-----------------------------------------------------------------------------+
|  Inner_Iter|     Min CFL|     Max CFL|      rms[P]|  Cauchy[CD]|          CD|
+-----------------------------------------------------------------------------+
|        7610|  4.1703e+01|  4.1703e+01|   -9.861764|  1.9669e-06|    0.032858|
|        7620|  4.1703e+01|  4.1703e+01|   -9.865065|  1.9521e-06|    0.032856|
|        7630|  4.1703e+01|  4.1703e+01|   -9.868369|  1.9374e-06|    0.032854|
|        7640|  4.1703e+01|  4.1703e+01|   -9.871678|  1.9229e-06|    0.032852|
|        7650|  4.1703e+01|  4.1703e+01|   -9.874990|  1.9084e-06|    0.032851|
|        7660|  4.1703e+01|  4.1703e+01|   -9.878294|  1.8940e-06|    0.032849|
|        7670|  4.1703e+01|  4.1703e+01|   -9.881587|  1.8796e-06|    0.032847|
|        7680|  4.1703e+01|  4.1703e+01|   -9.884872|  1.8654e-06|    0.032845|
|        7690|  4.1703e+01|  4.1703e+01|   -9.888153|  1.8513e-06|    0.032844|
|        7700|  4.1703e+01|  4.1703e+01|   -9.891434|  1.8373e-06|    0.032842|
|        7710|  4.1703e+01|  4.1703e+01|   -9.894713|  1.8234e-06|    0.032840|
|        7720|  4.1703e+01|  4.1703e+01|   -9.897988|  1.8096e-06|    0.032839|
|        7730|  4.1703e+01|  4.1703e+01|   -9.901257|  1.7958e-06|    0.032837|
|        7740|  4.1703e+01|  4.1703e+01|   -9.904521|  1.7821e-06|    0.032835|
|        7750|  4.1703e+01|  4.1703e+01|   -9.907781|  1.7685e-06|    0.032834|
|        7760|  4.1703e+01|  4.1703e+01|   -9.911045|  1.7549e-06|    0.032832|
|        7770|  4.1703e+01|  4.1703e+01|   -9.914305|  1.7414e-06|    0.032831|
|        7780|  4.1703e+01|  4.1703e+01|   -9.917566|  1.7281e-06|    0.032829|
|        7790|  4.1703e+01|  4.1703e+01|   -9.920824|  1.7148e-06|    0.032828|
|        7800|  4.1703e+01|  4.1703e+01|   -9.924078|  1.7016e-06|    0.032826|
+-----------------------------------------------------------------------+
|        File Writing Summary       |              Filename             |
+-----------------------------------------------------------------------+
|SU2 binary restart                 |restart_flow_G3.dat                |
|Paraview                           |flow_G3.vtu                        |
|Paraview surface                   |surface_flow_G3.vtu                |
+-----------------------------------------------------------------------+
+-----------------------------------------------------------------------------+
|  Inner_Iter|     Min CFL|     Max CFL|      rms[P]|  Cauchy[CD]|          CD|
+-----------------------------------------------------------------------------+
|        7810|  4.1703e+01|  4.1703e+01|   -9.927322|  1.6885e-06|    0.032824|
|        7820|  4.1703e+01|  4.1703e+01|   -9.930554|  1.6754e-06|    0.032823|
|        7830|  4.1703e+01|  4.1703e+01|   -9.933779|  1.6625e-06|    0.032821|
|        7840|  4.1703e+01|  4.1703e+01|   -9.937002|  1.6496e-06|    0.032820|
|        7850|  4.1703e+01|  4.1703e+01|   -9.940226|  1.6369e-06|    0.032818|
|        7860|  4.1703e+01|  4.1703e+01|   -9.943452|  1.6242e-06|    0.032817|
|        7870|  4.1703e+01|  4.1703e+01|   -9.946678|  1.6117e-06|    0.032816|
|        7880|  4.1703e+01|  4.1703e+01|   -9.949903|  1.5992e-06|    0.032814|
|        7890|  4.1703e+01|  4.1703e+01|   -9.953128|  1.5868e-06|    0.032813|
|        7900|  4.1703e+01|  4.1703e+01|   -9.956356|  1.5745e-06|    0.032811|
|        7910|  4.1703e+01|  4.1703e+01|   -9.959589|  1.5623e-06|    0.032810|
|        7920|  4.1703e+01|  4.1703e+01|   -9.962829|  1.5501e-06|    0.032808|
|        7930|  4.1703e+01|  4.1703e+01|   -9.966071|  1.5381e-06|    0.032807|
|        7940|  4.1703e+01|  4.1703e+01|   -9.969308|  1.5262e-06|    0.032806|
|        7950|  4.1703e+01|  4.1703e+01|   -9.972538|  1.5143e-06|    0.032804|
|        7960|  4.1703e+01|  4.1703e+01|   -9.975758|  1.5025e-06|    0.032803|
|        7970|  4.1703e+01|  4.1703e+01|   -9.978990|  1.4909e-06|    0.032801|
|        7980|  4.1703e+01|  4.1703e+01|   -9.982219|  1.4793e-06|    0.032800|
|        7990|  4.1703e+01|  4.1703e+01|   -9.985455|  1.4678e-06|    0.032799|
|        8000|  4.1703e+01|  4.1703e+01|   -9.988688|  1.4565e-06|    0.032797|
+-----------------------------------------------------------------------+
|        File Writing Summary       |              Filename             |
+-----------------------------------------------------------------------+
|SU2 binary restart                 |restart_flow_G3.dat                |
|Paraview                           |flow_G3.vtu                        |
|Paraview surface                   |surface_flow_G3.vtu                |
+-----------------------------------------------------------------------+
+-----------------------------------------------------------------------------+
|  Inner_Iter|     Min CFL|     Max CFL|      rms[P]|  Cauchy[CD]|          CD|
+-----------------------------------------------------------------------------+
|        8010|  4.1703e+01|  4.1703e+01|   -9.991916|  1.4452e-06|    0.032796|
|        8020|  4.1703e+01|  4.1703e+01|   -9.995145|  1.4340e-06|    0.032795|
|        8030|  4.1703e+01|  4.1703e+01|   -9.998372|  1.4229e-06|    0.032794|
|        8040|  4.1703e+01|  4.1703e+01|  -10.001588|  1.4119e-06|    0.032792|
|        8050|  4.1703e+01|  4.1703e+01|  -10.004811|  1.4010e-06|    0.032791|
|        8060|  4.1703e+01|  4.1703e+01|  -10.008028|  1.3902e-06|    0.032790|
|        8070|  4.1703e+01|  4.1703e+01|  -10.011240|  1.3795e-06|    0.032788|
|        8080|  4.1703e+01|  4.1703e+01|  -10.014451|  1.3688e-06|    0.032787|
|        8090|  4.1703e+01|  4.1703e+01|  -10.017660|  1.3583e-06|    0.032786|
|        8100|  4.1703e+01|  4.1703e+01|  -10.020868|  1.3478e-06|    0.032785|
|        8110|  4.1703e+01|  4.1703e+01|  -10.024073|  1.3374e-06|    0.032784|
|        8120|  4.1703e+01|  4.1703e+01|  -10.027271|  1.3271e-06|    0.032782|
|        8130|  4.1703e+01|  4.1703e+01|  -10.030467|  1.3168e-06|    0.032781|
|        8140|  4.1703e+01|  4.1703e+01|  -10.033661|  1.3067e-06|    0.032780|
|        8150|  4.1703e+01|  4.1703e+01|  -10.036855|  1.2966e-06|    0.032779|
|        8160|  4.1703e+01|  4.1703e+01|  -10.040039|  1.2866e-06|    0.032778|
|        8170|  4.1703e+01|  4.1703e+01|  -10.043229|  1.2767e-06|    0.032776|
|        8180|  4.1703e+01|  4.1703e+01|  -10.046421|  1.2669e-06|    0.032775|
|        8190|  4.1703e+01|  4.1703e+01|  -10.049612|  1.2571e-06|    0.032774|
|        8200|  4.1703e+01|  4.1703e+01|  -10.052803|  1.2474e-06|    0.032773|
+-----------------------------------------------------------------------+
|        File Writing Summary       |              Filename             |
+-----------------------------------------------------------------------+
|SU2 binary restart                 |restart_flow_G3.dat                |
|Paraview                           |flow_G3.vtu                        |
|Paraview surface                   |surface_flow_G3.vtu                |
+-----------------------------------------------------------------------+
+-----------------------------------------------------------------------------+
|  Inner_Iter|     Min CFL|     Max CFL|      rms[P]|  Cauchy[CD]|          CD|
+-----------------------------------------------------------------------------+
|        8210|  4.1703e+01|  4.1703e+01|  -10.055997|  1.2379e-06|    0.032772|
|        8220|  4.1703e+01|  4.1703e+01|  -10.059197|  1.2284e-06|    0.032771|
|        8230|  4.1703e+01|  4.1703e+01|  -10.062400|  1.2190e-06|    0.032770|
|        8240|  4.1703e+01|  4.1703e+01|  -10.065603|  1.2096e-06|    0.032769|
|        8250|  4.1703e+01|  4.1703e+01|  -10.068804|  1.2004e-06|    0.032767|
|        8260|  4.1703e+01|  4.1703e+01|  -10.072007|  1.1912e-06|    0.032766|
|        8270|  4.1703e+01|  4.1703e+01|  -10.075212|  1.1822e-06|    0.032765|
|        8280|  4.1703e+01|  4.1703e+01|  -10.078416|  1.1732e-06|    0.032764|
|        8290|  4.1703e+01|  4.1703e+01|  -10.081628|  1.1642e-06|    0.032763|
|        8300|  4.1703e+01|  4.1703e+01|  -10.084842|  1.1554e-06|    0.032762|
|        8310|  4.1703e+01|  4.1703e+01|  -10.088056|  1.1466e-06|    0.032761|
|        8320|  4.1703e+01|  4.1703e+01|  -10.091274|  1.1380e-06|    0.032760|
|        8330|  4.1703e+01|  4.1703e+01|  -10.094495|  1.1294e-06|    0.032759|
|        8340|  4.1703e+01|  4.1703e+01|  -10.097717|  1.1208e-06|    0.032758|
|        8350|  4.1703e+01|  4.1703e+01|  -10.100944|  1.1124e-06|    0.032757|
|        8360|  4.1703e+01|  4.1703e+01|  -10.104164|  1.1040e-06|    0.032756|
|        8370|  4.1703e+01|  4.1703e+01|  -10.107387|  1.0957e-06|    0.032755|
|        8380|  4.1703e+01|  4.1703e+01|  -10.110615|  1.0875e-06|    0.032754|
|        8390|  4.1703e+01|  4.1703e+01|  -10.113851|  1.0793e-06|    0.032753|
|        8400|  4.1703e+01|  4.1703e+01|  -10.117092|  1.0712e-06|    0.032752|
+-----------------------------------------------------------------------+
|        File Writing Summary       |              Filename             |
+-----------------------------------------------------------------------+
|SU2 binary restart                 |restart_flow_G3.dat                |
|Paraview                           |flow_G3.vtu                        |
|Paraview surface                   |surface_flow_G3.vtu                |
+-----------------------------------------------------------------------+
+-----------------------------------------------------------------------------+
|  Inner_Iter|     Min CFL|     Max CFL|      rms[P]|  Cauchy[CD]|          CD|
+-----------------------------------------------------------------------------+
|        8410|  4.1703e+01|  4.1703e+01|  -10.120333|  1.0632e-06|    0.032751|
|        8420|  4.1703e+01|  4.1703e+01|  -10.123574|  1.0552e-06|    0.032750|
|        8430|  4.1703e+01|  4.1703e+01|  -10.126810|  1.0473e-06|    0.032749|
|        8440|  4.1703e+01|  4.1703e+01|  -10.130039|  1.0395e-06|    0.032748|
|        8450|  4.1703e+01|  4.1703e+01|  -10.133270|  1.0317e-06|    0.032747|
|        8460|  4.1703e+01|  4.1703e+01|  -10.136502|  1.0239e-06|    0.032746|
|        8470|  4.1703e+01|  4.1703e+01|  -10.139734|  1.0163e-06|    0.032745|
|        8480|  4.1703e+01|  4.1703e+01|  -10.142967|  1.0086e-06|    0.032744|
|        8490|  4.1703e+01|  4.1703e+01|  -10.146201|  1.0010e-06|    0.032744|
|        8492|  4.1703e+01|  4.1703e+01|  -10.146848|  9.9950e-07|    0.032743|

----------------------------- Solver Exit -------------------------------
All convergence criteria satisfied.
+-----------------------------------------------------------------------+
|      Convergence Field     |     Value    |   Criterion  |  Converged |
+-----------------------------------------------------------------------+
|                      rms[P]|      -10.1468|          < -9|         Yes|
|                  Cauchy[CD]|   9.99502e-07|       < 1e-06|         Yes|
+-----------------------------------------------------------------------+
-------------------------------------------------------------------------
+-----------------------------------------------------------------------+
|        File Writing Summary       |              Filename             |
+-----------------------------------------------------------------------+
|SU2 binary restart                 |restart_flow_G3.dat                |
|Paraview                           |flow_G3.vtu                        |
|Paraview surface                   |surface_flow_G3.vtu                |
+-----------------------------------------------------------------------+

------------------------- Solver Postprocessing -------------------------
Deleted CNumerics container.
Deleted CIntegration container.
Deleted CSolver container.
Deleted CIteration container.
Deleted CInterface container.
Deleted CGeometry container.
Deleted CFreeFormDefBox class.
Deleted CSurfaceMovement class.
Deleted CVolumetricMovement class.
Deleted CConfig container.
Deleted nInst container.
Deleted COutput class.
-------------------------------------------------------------------------

------------------------- Exit Success (SU2_CFD) ------------------------

