
-------------------------------------------------------------------------
|    ___ _   _ ___                                                      |
|   / __| | | |_  )   Release 7.4.0 "Blackbird"                         |
|   \__ \ |_| |/ /                                                      |
|   |___/\___//___|   Suite (Computational Fluid Dynamics Code)         |
|                                                                       |
-------------------------------------------------------------------------
| SU2 Project Website: https://su2code.github.io                        |
|                                                                       |
| The SU2 Project is maintained by the SU2 Foundation                   |
| (http://su2foundation.org)                                            |
-------------------------------------------------------------------------
| Copyright 2012-2022, SU2 Contributors                                 |
|                                                                       |
| SU2 is free software; you can redistribute it and/or                  |
| modify it under the terms of the GNU Lesser General Public            |
| License as published by the Free Software Foundation; either          |
| version 2.1 of the License, or (at your option) any later version.    |
|                                                                       |
| SU2 is distributed in the hope that it will be useful,                |
| but WITHOUT ANY WARRANTY; without even the implied warranty of        |
| MERCHANTABILITY or FITNESS FOR A PARTICULAR PURPOSE. See the GNU      |
| Lesser General Public License for more details.                       |
|                                                                       |
| You should have received a copy of the GNU Lesser General Public      |
| License along with SU2. If not, see <http://www.gnu.org/licenses/>.   |
-------------------------------------------------------------------------

Parsing config file for zone 0

----------------- Physical Case Definition ( Zone 0 ) -------------------
Incompressible RANS equations.
Turbulence model: Menter's k-omega SST-2003m with no production modification.
Hybrid RANS/LES: No Hybrid RANS/LES
Reading and writing binary SU2 native restart files.
Read flow solution from: ../../O1/case_A0/restart_flow_aoa0.dat.
Non-Dimensional simulation using intialization values.
The reference area is 1 m^2.
The semi-span will be computed using the max y(3D) value.
The reference length is 1.00898 m.
Reference origin for moment evaluation is (-0.756, 0, 0).
Surface(s) where the force coefficients are evaluated: AIRFOIL.

Surface(s) plotted in the output file: AIRFOIL.
Input mesh file name: ../meshG5/meshG5.su2

--------------- Space Numerical Integration ( Zone 0 ) ------------------
Flux difference splitting (FDS) upwind scheme for the flow inviscid terms.
Second order integration in space, with slope limiter.
Venkatakrishnan slope-limiting method, with constant: 0.056.
The reference element size is: 1. 
Average of gradients with correction (viscous flow terms).
Average of gradients with correction (viscous turbulence terms).
Gradient for upwind reconstruction: unweighted Least-Squares.
Gradient for viscous and source terms: Green-Gauss.

--------------- Time Numerical Integration  ( Zone 0 ) ------------------
Local time stepping (steady state simulation).
Euler implicit method for the flow equations.
FGMRES is used for solving the linear system.
Using a ILU(0) preconditioning.
Convergence criteria of the linear solver: 1e-06.
Max number of linear iterations: 10.
CFL adaptation. Factor down: 0.1, factor up: 1.2,
                lower limit: 1, upper limit: 1000,
                acceptable linear residual: 0.001.
Courant-Friedrichs-Lewy number:        2
Euler implicit time integration for the turbulence model.

------------------ Convergence Criteria  ( Zone 0 ) ---------------------
Maximum number of solver subiterations: 9999.
Begin convergence monitoring at iteration 10.
Residual minimum value: 1e-9.
Cauchy series min. value: 1e-06.
Number of Cauchy elements: 250.
Begin windowed time average at iteration 0.

-------------------- Output Information ( Zone 0 ) ----------------------
File writing frequency: 
+------------------------------------+
|                     File| Frequency|
+------------------------------------+
|                  RESTART|       200|
|                 PARAVIEW|       200|
|         SURFACE_PARAVIEW|       200|
+------------------------------------+
Writing the convergence history file every 1 inner iterations.
Writing the screen convergence history every 10 inner iterations.
The tabular file format is CSV (.csv).
Convergence history file name: history_aoa0.
Forces breakdown file name: forces_breakdown.dat.
Surface file name: surface_flow_aoa0.
Volume file name: flow_aoa0.
Restart file name: restart_flow_aoa0.dat.

------------- Config File Boundary Information ( Zone 0 ) ---------------
+-----------------------------------------------------------------------+
|                        Marker Type|                        Marker Name|
+-----------------------------------------------------------------------+
|                          Far-field|                           FARFIELD|
+-----------------------------------------------------------------------+
|                     Heat flux wall|                            AIRFOIL|
+-----------------------------------------------------------------------+

-------------------- Output Preprocessing ( Zone 0 ) --------------------

WARNING: SURFACE_PRESSURE_DROP can only be computed for at least 2 surfaces (outlet, inlet, ...)

Screen output fields: INNER_ITER, MIN_CFL, MAX_CFL, RMS_PRESSURE, CAUCHY_DRAG, DRAG
History output group(s): INNER_ITER, MIN_CFL, MAX_CFL, RMS_RES, LIFT, DRAG, MOMENT_Z, CAUCHY
Convergence field(s): RMS_PRESSURE, DRAG
Warning: No (valid) fields chosen for time convergence monitoring. Time convergence monitoring inactive.
Volume output fields: COORDINATES, SOLUTION, PRIMITIVE, RESIDUAL, MESH_QUALITY

------------------- Geometry Preprocessing ( Zone 0 ) -------------------
Two dimensional problem.
361479 grid points before partitioning.
360180 volume elements before partitioning.
2 surface markers.
724 boundary elements in index 0 (Marker = AIRFOIL).
1874 boundary elements in index 1 (Marker = FARFIELD).
Executing the partitioning functions.
Building the graph adjacency structure.
Calling ParMETIS... graph partitioning complete (4050 edge cuts).
Distributing ParMETIS coloring.
Rebalancing vertices.
Rebalancing volume element connectivity.
Rebalancing markers and surface elements.
369602 vertices including ghost points. 
364230 interior elements including halo cells. 
364230 quadrilaterals.
Establishing MPI communication patterns.
Setting point connectivity.
Renumbering points (Reverse Cuthill McKee Ordering).
Recomputing point connectivity.
Setting element connectivity.
Checking the numerical grid orientation.
All volume elements are correctly orientend.
There has been a re-orientation of 1305 LINE surface elements.
Identifying edges and vertices.
Setting the control volume structure.
Area of the computational grid: 103207.
Searching for the closest normal neighbors to the surfaces.
Storing a mapping from global to local point index.
Compute the surface curvature.
Max K: 227502. Mean K: 205.598. Standard deviation K: 4719.73.
Checking for periodicity.
Computing mesh quality statistics for the dual control volumes.
+--------------------------------------------------------------+
|           Mesh Quality Metric|        Minimum|        Maximum|
+--------------------------------------------------------------+
|    Orthogonality Angle (deg.)|        75.9136|             90|
|     CV Face Area Aspect Ratio|        1.00002|    3.17894e+06|
|           CV Sub-Volume Ratio|              1|         387.07|
+--------------------------------------------------------------+
Finding max control volume width.
Communicating number of neighbors.
Wetted area = 2.0597 m.
Area projection in the x-plane = 0.121116 m, y-plane = 1.00881 m.
Max. coordinate in the x-direction = 1.00898 m, y-direction = 0.0759837 m.
Min. coordinate in the x-direction = 4.86614e-06 m, y-direction = -0.0451345 m.
Computing wall distances.

-------------------- Solver Preprocessing ( Zone 0 ) --------------------
 Warning: There is no restart file (flow.meta).
 Computation will continue without updating metadata parameters.
Incompressible flow: rho_ref, vel_ref, and temp_ref
are based on the initial values, p_ref = rho_ref*vel_ref^2.
Force coefficients computed using initial values.
The reference area for force coeffs. is 1 m^2.
The reference length for force coeffs. is 1.00898 m.
The pressure is decomposed into thermodynamic and dynamic components.
The initial value of the dynamic pressure is 0.
Mach number: 0.0276747, computed using the Bulk modulus.
For external flows, the initial state is imposed at the far-field.
Angle of attack (deg): 0, computed using the initial velocity.
Side slip angle (deg): 0, computed using the initial velocity.
Reynolds number per meter: 595000, computed using initial values.
Reynolds number is a byproduct of inputs only (not used internally).
SI units only. The grid should be dimensional (meters).
No energy equation.

-- Models:
+------------------------------------------------------------------------------+
|          Viscosity Model|        Conductivity Model|              Fluid Model|
+------------------------------------------------------------------------------+
|       CONSTANT_VISCOSITY|          CONSTANT_PRANDTL|         CONSTANT_DENSITY|
+------------------------------------------------------------------------------+
-- Fluid properties:
+------------------------------------------------------------------------------+
|                  Name|    Dim. value|    Ref. value|      Unit|Non-dim. value|
+------------------------------------------------------------------------------+
|             Viscosity|      1.92e-05|        11.424|   N.s/m^2|   1.68067e-06|
+------------------------------------------------------------------------------+
|        Prandtl (Lam.)|             -|             -|         -|          0.72|
|       Prandtl (Turb.)|             -|             -|         -|           0.9|
+------------------------------------------------------------------------------+
|          Bulk Modulus|        142000|             1|        Pa|        142000|
+------------------------------------------------------------------------------+
-- Initial and free-stream conditions:
+------------------------------------------------------------------------------+
|                  Name|    Dim. value|    Ref. value|      Unit|Non-dim. value|
+------------------------------------------------------------------------------+
|      Dynamic Pressure|             0|       108.756|        Pa|             0|
|        Total Pressure|       54.3782|       108.756|        Pa|           0.5|
|               Density|           1.2|           1.2|    kg/m^3|             1|
|            Velocity-X|          9.52|          9.52|       m/s|             1|
|            Velocity-Y|             0|          9.52|       m/s|             0|
|    Velocity Magnitude|          9.52|          9.52|       m/s|             1|
+------------------------------------------------------------------------------+
|             Viscosity|      1.92e-05|        11.424|   N.s/m^2|   1.68067e-06|
|          Conductivity|             -|       3.59313|   W/m^2.K|             -|
|     Turb. Kin. Energy|       1.35946|       90.6304|   m^2/s^2|         0.015|
|     Spec. Dissipation|        8496.6|          9.52|       1/s|         892.5|
+------------------------------------------------------------------------------+
|           Mach Number|             -|             -|         -|     0.0276747|
|       Reynolds Number|             -|             -|         -|        595000|
+------------------------------------------------------------------------------+
Initialize Jacobian structure (Navier-Stokes). MG level: 0.
Initialize Jacobian structure (SST model).

------------------- Numerics Preprocessing ( Zone 0 ) -------------------

----------------- Integration Preprocessing ( Zone 0 ) ------------------

------------------- Iteration Preprocessing ( Zone 0 ) ------------------
Euler/Navier-Stokes/RANS fluid iteration.

------------------------------ Begin Solver -----------------------------

Simulation Run using the Single-zone Driver
+-----------------------------------------------------------------------------+
|  Inner_Iter|     Min CFL|     Max CFL|      rms[P]|  Cauchy[CD]|          CD|
+-----------------------------------------------------------------------------+
|           0|  2.4000e+00|  2.4000e+00|   -9.031663|  1.0000e+00|    0.005650|
|          10|  1.4860e+01|  1.4860e+01|   -3.584781|  1.0320e-03|    0.005712|
|          20|  9.2010e+01|  9.2010e+01|   -3.998542|  1.2166e-03|    0.010329|
|          30|  4.7475e+01|  4.7475e+01|   -4.391835|  1.4231e-03|    0.015088|
|          40|  2.4496e+01|  2.4496e+01|   -4.387958|  1.4938e-03|    0.013321|
|          50|  1.2639e+02|  1.2639e+02|   -4.386970|  1.5834e-03|    0.011406|
|          60|  1.5167e+02|  1.5167e+02|   -4.647127|  1.7209e-03|    0.007969|
|          70|  7.8260e+01|  7.8260e+01|   -4.754538|  1.7476e-03|    0.007302|
|          80|  4.0381e+01|  4.0381e+01|   -4.853071|  1.7602e-03|    0.006992|
|          90|  1.4469e+02|  1.4469e+02|   -4.910791|  1.7834e-03|    0.007555|
|         100|  7.4657e+01|  7.4657e+01|   -4.945162|  1.7917e-03|    0.007764|
|         110|  3.8522e+01|  3.8522e+01|   -4.990309|  1.8021e-03|    0.008023|
|         120|  1.9876e+01|  1.9876e+01|   -5.036444|  1.8368e-03|    0.008892|
|         130|  1.2307e+02|  1.2307e+02|   -5.060926|  1.8727e-03|    0.009788|
|         140|  6.3501e+01|  6.3501e+01|   -5.094364|  1.9100e-03|    0.010720|
|         150|  3.2765e+01|  3.2765e+01|   -5.138822|  1.9424e-03|    0.011332|
|         160|  1.4088e+02|  1.4088e+02|   -5.180887|  1.9769e-03|    0.010468|
|         170|  5.0481e+01|  5.0481e+01|   -5.221871|  1.9954e-03|    0.010930|
|         180|  2.6047e+01|  2.6047e+01|   -5.263042|  2.0123e-03|    0.011325|
|         190|  1.6128e+02|  1.6128e+02|   -5.293948|  2.0274e-03|    0.010947|
|         200|  8.3216e+01|  8.3216e+01|   -5.323790|  2.0377e-03|    0.010690|
+-----------------------------------------------------------------------+
|        File Writing Summary       |              Filename             |
+-----------------------------------------------------------------------+
|SU2 binary restart                 |restart_flow_aoa0.dat              |
|Paraview                           |flow_aoa0.vtu                      |
|Paraview surface                   |surface_flow_aoa0.vtu              |
+-----------------------------------------------------------------------+
+-----------------------------------------------------------------------------+
|  Inner_Iter|     Min CFL|     Max CFL|      rms[P]|  Cauchy[CD]|          CD|
+-----------------------------------------------------------------------------+
|         210|  4.2937e+01|  4.2937e+01|   -5.363640|  2.0426e-03|    0.010799|
|         220|  1.5385e+02|  1.5385e+02|   -5.407002|  2.0541e-03|    0.011062|
|         230|  1.8462e+01|  1.8462e+01|   -5.475239|  2.0640e-03|    0.011311|
|         240|  1.1431e+02|  1.1431e+02|   -5.498682|  2.0659e-03|    0.011264|
|         250|  1.6461e+02|  1.6461e+02|   -5.556345|  2.0767e-03|    0.011534|
|         260|  1.6461e+02|  1.6461e+02|   -5.613889|  1.0484e-03|    0.011626|
|         270|  2.8445e+01|  2.8445e+01|   -5.663180|  8.6928e-04|    0.011764|
|         280|  1.7612e+02|  1.7612e+02|   -5.682135|  6.6480e-04|    0.011814|
|         290|  1.7612e+02|  1.7612e+02|   -5.732953|  5.9852e-04|    0.011923|
|         300|  3.0434e+01|  3.0434e+01|   -5.772946|  5.1091e-04|    0.011974|
|         310|  1.8844e+02|  1.8844e+02|   -5.790858|  3.7427e-04|    0.011993|
|         320|  9.7231e+01|  9.7231e+01|   -5.808082|  3.4829e-04|    0.012006|
|         330|  1.6801e+01|  1.6801e+01|   -5.845102|  3.3606e-04|    0.012015|
|         340|  1.0403e+02|  1.0403e+02|   -5.858010|  3.1319e-04|    0.012020|
|         350|  5.3677e+01|  5.3677e+01|   -5.876942|  3.0519e-04|    0.012018|
|         360|  1.6028e+02|  1.6028e+02|   -5.902474|  2.9518e-04|    0.012009|
|         370|  1.6028e+02|  1.6028e+02|   -5.939642|  2.6112e-04|    0.011992|
|         380|  1.6028e+02|  1.6028e+02|   -5.975310|  2.2588e-04|    0.011977|
|         390|  6.8917e+01|  6.8917e+01|   -5.990130|  1.8880e-04|    0.011973|
|         400|  3.5560e+01|  3.5560e+01|   -6.007198|  1.5674e-04|    0.011964|
+-----------------------------------------------------------------------+
|        File Writing Summary       |              Filename             |
+-----------------------------------------------------------------------+
|SU2 binary restart                 |restart_flow_aoa0.dat              |
|Paraview                           |flow_aoa0.vtu                      |
|Paraview surface                   |surface_flow_aoa0.vtu              |
+-----------------------------------------------------------------------+
+-----------------------------------------------------------------------------+
|  Inner_Iter|     Min CFL|     Max CFL|      rms[P]|  Cauchy[CD]|          CD|
+-----------------------------------------------------------------------------+
|         410|  1.5290e+02|  1.5290e+02|   -6.023462|  1.2251e-04|    0.011955|
|         420|  1.5290e+02|  1.5290e+02|   -6.054592|  1.0454e-04|    0.011943|
|         430|  1.5290e+02|  1.5290e+02|   -6.084652|  8.8027e-05|    0.011933|
|         440|  1.5290e+02|  1.5290e+02|   -6.113680|  7.3241e-05|    0.011926|
|         450|  1.5290e+02|  1.5290e+02|   -6.141743|  6.3237e-05|    0.011918|
|         460|  1.5290e+02|  1.5290e+02|   -6.168891|  5.8600e-05|    0.011913|
|         470|  1.5290e+02|  1.5290e+02|   -6.195178|  4.7320e-05|    0.011907|
|         480|  1.5290e+02|  1.5290e+02|   -6.220625|  3.7548e-05|    0.011902|
|         490|  1.5290e+02|  1.5290e+02|   -6.245265|  3.5820e-05|    0.011898|
|         500|  1.5290e+02|  1.5290e+02|   -6.269141|  2.5186e-05|    0.011894|
|         510|  1.5290e+02|  1.5290e+02|   -6.292278|  2.1638e-05|    0.011890|
|         520|  1.5290e+02|  1.5290e+02|   -6.314706|  1.6297e-05|    0.011886|
|         530|  1.5290e+02|  1.5290e+02|   -6.336452|  1.4443e-05|    0.011882|
|         540|  1.5290e+02|  1.5290e+02|   -6.357546|  1.0177e-05|    0.011879|
|         550|  1.5290e+02|  1.5290e+02|   -6.378015|  8.2650e-06|    0.011876|
|         560|  1.5290e+02|  1.5290e+02|   -6.397890|  7.5254e-06|    0.011873|
|         570|  1.8348e+01|  1.8348e+01|   -6.417196|  6.9594e-06|    0.011870|
|         580|  1.1361e+02|  1.1361e+02|   -6.424179|  6.6316e-06|    0.011870|
|         590|  1.6359e+02|  1.6359e+02|   -6.442324|  6.4080e-06|    0.011867|
|         600|  1.6359e+02|  1.6359e+02|   -6.461686|  6.1609e-06|    0.011865|
+-----------------------------------------------------------------------+
|        File Writing Summary       |              Filename             |
+-----------------------------------------------------------------------+
|SU2 binary restart                 |restart_flow_aoa0.dat              |
|Paraview                           |flow_aoa0.vtu                      |
|Paraview surface                   |surface_flow_aoa0.vtu              |
+-----------------------------------------------------------------------+
+-----------------------------------------------------------------------------+
|  Inner_Iter|     Min CFL|     Max CFL|      rms[P]|  Cauchy[CD]|          CD|
+-----------------------------------------------------------------------------+
|         610|  1.6359e+02|  1.6359e+02|   -6.480566|  5.8980e-06|    0.011862|
|         620|  1.6359e+02|  1.6359e+02|   -6.499040|  5.3063e-06|    0.011860|
|         630|  1.6359e+02|  1.6359e+02|   -6.517186|  4.7861e-06|    0.011858|
|         640|  1.6359e+02|  1.6359e+02|   -6.534930|  4.6600e-06|    0.011856|
|         650|  1.6359e+02|  1.6359e+02|   -6.551612|  4.3759e-06|    0.011854|
|         660|  1.6359e+02|  1.6359e+02|   -6.567594|  4.1063e-06|    0.011853|
|         670|  1.6359e+02|  1.6359e+02|   -6.583066|  3.6550e-06|    0.011851|
|         680|  1.6359e+02|  1.6359e+02|   -6.598111|  3.3461e-06|    0.011850|
|         690|  1.6359e+02|  1.6359e+02|   -6.612783|  3.0821e-06|    0.011848|
|         700|  1.6359e+02|  1.6359e+02|   -6.627119|  2.8460e-06|    0.011847|
|         710|  7.0342e+01|  7.0342e+01|   -6.634696|  2.6336e-06|    0.011847|
|         720|  1.7503e+02|  1.7503e+02|   -6.645626|  2.4639e-06|    0.011846|
|         730|  1.7503e+02|  1.7503e+02|   -6.660242|  2.3161e-06|    0.011844|
|         740|  1.7503e+02|  1.7503e+02|   -6.674556|  2.1841e-06|    0.011843|
|         750|  1.7503e+02|  1.7503e+02|   -6.688601|  2.0542e-06|    0.011842|
|         760|  1.7503e+02|  1.7503e+02|   -6.702392|  1.9327e-06|    0.011841|
|         770|  2.1004e+02|  2.1004e+02|   -6.715929|  1.8176e-06|    0.011840|
|         780|  1.0838e+02|  1.0838e+02|   -6.721488|  1.6880e-06|    0.011840|
|         790|  1.8727e+02|  1.8727e+02|   -6.733633|  1.5911e-06|    0.011839|
|         800|  1.8727e+02|  1.8727e+02|   -6.747485|  1.4991e-06|    0.011839|
+-----------------------------------------------------------------------+
|        File Writing Summary       |              Filename             |
+-----------------------------------------------------------------------+
|SU2 binary restart                 |restart_flow_aoa0.dat              |
|Paraview                           |flow_aoa0.vtu                      |
|Paraview surface                   |surface_flow_aoa0.vtu              |
+-----------------------------------------------------------------------+
+-----------------------------------------------------------------------------+
|  Inner_Iter|     Min CFL|     Max CFL|      rms[P]|  Cauchy[CD]|          CD|
+-----------------------------------------------------------------------------+
|         810|  1.8727e+02|  1.8727e+02|   -6.761077|  1.4145e-06|    0.011838|
|         820|  1.8727e+02|  1.8727e+02|   -6.774432|  1.3327e-06|    0.011837|
|         830|  1.8727e+02|  1.8727e+02|   -6.787565|  1.3369e-06|    0.011836|
|         840|  1.8727e+02|  1.8727e+02|   -6.800485|  1.2508e-06|    0.011836|
|         850|  1.8727e+02|  1.8727e+02|   -6.813200|  1.1828e-06|    0.011835|
|         860|  5.5920e+01|  5.5920e+01|   -6.821778|  1.1034e-06|    0.011835|
|         870|  2.4045e+01|  2.4045e+01|   -6.829537|  1.0327e-06|    0.011834|
|         880|  1.4888e+02|  1.4888e+02|   -6.832948|  9.5804e-07|    0.011834|
|         890|  7.6817e+01|  7.6817e+01|   -6.838704|  8.9454e-07|    0.011834|
|         900|  1.9115e+02|  1.9115e+02|   -6.847796|  8.4211e-07|    0.011833|
|         910|  4.7563e+01|  4.7563e+01|   -6.857134|  7.9125e-07|    0.011833|
|         920|  2.0451e+02|  2.0451e+02|   -6.863641|  7.4310e-07|    0.011833|
|         930|  2.0451e+02|  2.0451e+02|   -6.876408|  7.0585e-07|    0.011832|
|         940|  2.0451e+02|  2.0451e+02|   -6.888927|  6.7402e-07|    0.011832|
|         950|  2.0451e+02|  2.0451e+02|   -6.901214|  6.4172e-07|    0.011831|
|         960|  2.0451e+02|  2.0451e+02|   -6.913274|  6.3939e-07|    0.011831|
|         970|  2.0451e+02|  2.0451e+02|   -6.925113|  6.1470e-07|    0.011830|
|         980|  1.0000e+00|  1.0000e+00|   -6.927616|  5.7141e-07|    0.011830|
|         990|  1.0000e+00|  1.0000e+00|   -6.927672|  5.2655e-07|    0.011830|
|        1000|  4.2998e+00|  4.2998e+00|   -6.927761|  4.8714e-07|    0.011830|
+-----------------------------------------------------------------------+
|        File Writing Summary       |              Filename             |
+-----------------------------------------------------------------------+
|SU2 binary restart                 |restart_flow_aoa0.dat              |
|Paraview                           |flow_aoa0.vtu                      |
|Paraview surface                   |surface_flow_aoa0.vtu              |
+-----------------------------------------------------------------------+
+-----------------------------------------------------------------------------+
|  Inner_Iter|     Min CFL|     Max CFL|      rms[P]|  Cauchy[CD]|          CD|
+-----------------------------------------------------------------------------+
|        1010|  2.6623e+01|  2.6623e+01|   -6.928286|  4.4828e-07|    0.011830|
|        1020|  1.6484e+02|  1.6484e+02|   -6.931558|  4.1818e-07|    0.011830|
|        1030|  8.5056e+01|  8.5056e+01|   -6.937063|  4.1435e-07|    0.011830|
|        1040|  2.1165e+02|  2.1165e+02|   -6.945746|  3.9186e-07|    0.011830|
|        1050|  2.1165e+02|  2.1165e+02|   -6.957387|  3.7512e-07|    0.011829|
|        1060|  1.4400e+00|  1.4400e+00|   -6.964397|  3.5152e-07|    0.011829|
|        1070|  8.9161e+00|  8.9161e+00|   -6.964563|  3.2213e-07|    0.011829|
|        1080|  5.5206e+01|  5.5206e+01|   -6.965589|  2.9457e-07|    0.011829|
|        1090|  2.8485e+01|  2.8485e+01|   -6.971980|  2.7555e-07|    0.011829|
|        1100|  1.7637e+02|  1.7637e+02|   -6.975237|  2.5718e-07|    0.011829|
|        1110|  1.0000e+00|  1.0000e+00|   -6.978215|  2.4581e-07|    0.011828|
|        1120|  1.2000e+00|  1.2000e+00|   -6.978267|  2.3123e-07|    0.011828|
|        1130|  7.4301e+00|  7.4301e+00|   -6.978402|  2.2429e-07|    0.011828|
|        1140|  4.6005e+01|  4.6005e+01|   -6.979240|  2.1411e-07|    0.011828|
|        1150|  2.3738e+01|  2.3738e+01|   -6.984454|  2.0394e-07|    0.011828|
|        1160|  1.4698e+02|  1.4698e+02|   -6.988244|  1.9325e-07|    0.011828|
|        1170|  2.1165e+02|  2.1165e+02|   -6.998155|  1.9340e-07|    0.011828|
|        1180|  2.0736e+00|  2.0736e+00|   -7.000456|  1.7443e-07|    0.011828|
|        1190|  1.2839e+01|  1.2839e+01|   -7.000680|  1.5314e-07|    0.011828|
|        1200|  7.9497e+01|  7.9497e+01|   -7.002074|  1.3586e-07|    0.011828|
+-----------------------------------------------------------------------+
|        File Writing Summary       |              Filename             |
+-----------------------------------------------------------------------+
|SU2 binary restart                 |restart_flow_aoa0.dat              |
|Paraview                           |flow_aoa0.vtu                      |
|Paraview surface                   |surface_flow_aoa0.vtu              |
+-----------------------------------------------------------------------+
+-----------------------------------------------------------------------------+
|  Inner_Iter|     Min CFL|     Max CFL|      rms[P]|  Cauchy[CD]|          CD|
+-----------------------------------------------------------------------------+
|        1210|  4.1019e+01|  4.1019e+01|   -7.007844|  1.2361e-07|    0.011828|
|        1220|  1.0000e+00|  1.0000e+00|   -7.008271|  1.0698e-07|    0.011828|
|        1230|  1.0000e+00|  1.0000e+00|   -7.008321|  1.0509e-07|    0.011828|
|        1240|  1.4400e+00|  1.4400e+00|   -7.008370|  1.0506e-07|    0.011828|
|        1250|  8.9161e+00|  8.9161e+00|   -7.008524|  1.0514e-07|    0.011828|
|        1260|  5.5206e+01|  5.5206e+01|   -7.009481|  1.0685e-07|    0.011828|
|        1270|  2.8485e+01|  2.8485e+01|   -7.015427|  1.0746e-07|    0.011827|
|        1280|  1.7637e+02|  1.7637e+02|   -7.018454|  1.0506e-07|    0.011827|
|        1290|  2.1165e+00|  2.1165e+00|   -7.028301|  1.0237e-07|    0.011827|
|        1300|  2.0736e+00|  2.0736e+00|   -7.028453|  8.6673e-08|    0.011827|
|        1310|  1.2839e+01|  1.2839e+01|   -7.028667|  7.8695e-08|    0.011827|
|        1320|  7.9497e+01|  7.9497e+01|   -7.029995|  7.9681e-08|    0.011827|
|        1330|  4.1019e+01|  4.1019e+01|   -7.035496|  8.3319e-08|    0.011827|
|        1340|  1.0000e+00|  1.0000e+00|   -7.036415|  7.6789e-08|    0.011827|
|        1350|  1.0000e+00|  1.0000e+00|   -7.036462|  6.9673e-08|    0.011827|
|        1360|  1.0000e+00|  1.0000e+00|   -7.036510|  6.6779e-08|    0.011827|
|        1370|  3.5832e+00|  3.5832e+00|   -7.036575|  6.6846e-08|    0.011827|
|        1380|  2.2186e+01|  2.2186e+01|   -7.036941|  6.7550e-08|    0.011827|
|        1390|  1.3737e+02|  1.3737e+02|   -7.039218|  7.2256e-08|    0.011827|
|        1400|  7.0880e+01|  7.0880e+01|   -7.044082|  6.6759e-08|    0.011827|
+-----------------------------------------------------------------------+
|        File Writing Summary       |              Filename             |
+-----------------------------------------------------------------------+
|SU2 binary restart                 |restart_flow_aoa0.dat              |
|Paraview                           |flow_aoa0.vtu                      |
|Paraview surface                   |surface_flow_aoa0.vtu              |
+-----------------------------------------------------------------------+
+-----------------------------------------------------------------------------+
|  Inner_Iter|     Min CFL|     Max CFL|      rms[P]|  Cauchy[CD]|          CD|
+-----------------------------------------------------------------------------+
|        1410|  2.1165e+02|  2.1165e+02|   -7.050626|  7.0975e-08|    0.011826|
|        1420|  1.0000e+00|  1.0000e+00|   -7.058554|  6.5174e-08|    0.011826|
|        1430|  6.1917e+00|  6.1917e+00|   -7.058652|  6.4044e-08|    0.011826|
|        1440|  3.8338e+01|  3.8338e+01|   -7.059257|  6.4154e-08|    0.011826|
|        1450|  1.0000e+00|  1.0000e+00|   -7.060385|  6.4241e-08|    0.011826|
|        1460|  1.0000e+00|  1.0000e+00|   -7.060431|  5.7742e-08|    0.011826|
|        1470|  3.5832e+00|  3.5832e+00|   -7.060493|  5.7453e-08|    0.011826|
|        1480|  2.2186e+01|  2.2186e+01|   -7.060845|  5.7845e-08|    0.011826|
|        1490|  1.3737e+02|  1.3737e+02|   -7.063028|  6.0463e-08|    0.011826|
|        1500|  7.0880e+01|  7.0880e+01|   -7.067693|  6.6414e-08|    0.011826|
|        1510|  2.9860e+00|  2.9860e+00|   -7.068349|  6.4883e-08|    0.011826|
|        1520|  1.8488e+01|  1.8488e+01|   -7.068637|  5.9435e-08|    0.011826|
|        1530|  1.1448e+02|  1.1448e+02|   -7.070429|  5.5897e-08|    0.011826|
|        1540|  5.9067e+01|  5.9067e+01|   -7.075241|  4.8001e-08|    0.011826|
|        1550|  2.1165e+02|  2.1165e+02|   -7.080716|  5.4808e-08|    0.011826|
|        1560|  1.0000e+00|  1.0000e+00|   -7.083634|  5.6383e-08|    0.011826|
|        1570|  1.0000e+00|  1.0000e+00|   -7.083677|  5.5172e-08|    0.011826|
|        1580|  1.0000e+00|  1.0000e+00|   -7.083720|  5.0455e-08|    0.011826|
|        1590|  2.0736e+00|  2.0736e+00|   -7.083766|  4.9472e-08|    0.011826|
|        1600|  1.2839e+01|  1.2839e+01|   -7.083959|  4.9689e-08|    0.011826|
+-----------------------------------------------------------------------+
|        File Writing Summary       |              Filename             |
+-----------------------------------------------------------------------+
|SU2 binary restart                 |restart_flow_aoa0.dat              |
|Paraview                           |flow_aoa0.vtu                      |
|Paraview surface                   |surface_flow_aoa0.vtu              |
+-----------------------------------------------------------------------+
+-----------------------------------------------------------------------------+
|  Inner_Iter|     Min CFL|     Max CFL|      rms[P]|  Cauchy[CD]|          CD|
+-----------------------------------------------------------------------------+
|        1610|  7.9497e+01|  7.9497e+01|   -7.085164|  5.1746e-08|    0.011825|
|        1620|  1.0000e+00|  1.0000e+00|   -7.090045|  5.4245e-08|    0.011825|
|        1630|  2.9860e+00|  2.9860e+00|   -7.090098|  5.3417e-08|    0.011825|
|        1640|  1.8488e+01|  1.8488e+01|   -7.090374|  4.8773e-08|    0.011825|
|        1650|  1.1448e+02|  1.1448e+02|   -7.092093|  4.9990e-08|    0.011825|
|        1660|  5.9067e+01|  5.9067e+01|   -7.096720|  4.5331e-08|    0.011825|
|        1670|  2.1165e+02|  2.1165e+02|   -7.101986|  4.3760e-08|    0.011825|
|        1680|  1.0000e+00|  1.0000e+00|   -7.104795|  4.5377e-08|    0.011825|
|        1690|  1.0000e+00|  1.0000e+00|   -7.104837|  4.5056e-08|    0.011825|
|        1700|  6.1917e+00|  6.1917e+00|   -7.104927|  4.4200e-08|    0.011825|
|        1710|  3.8338e+01|  3.8338e+01|   -7.105483|  4.4923e-08|    0.011825|
|        1720|  2.3738e+02|  2.3738e+02|   -7.108963|  4.7568e-08|    0.011825|
|        1730|  1.0000e+00|  1.0000e+00|   -7.110923|  4.7814e-08|    0.011825|
|        1740|  1.0000e+00|  1.0000e+00|   -7.110964|  4.5167e-08|    0.011825|
|        1750|  1.4400e+00|  1.4400e+00|   -7.111005|  3.9012e-08|    0.011825|
|        1760|  8.9161e+00|  8.9161e+00|   -7.111133|  3.8354e-08|    0.011825|
|        1770|  5.5206e+01|  5.5206e+01|   -7.111927|  3.8970e-08|    0.011825|
|        1780|  2.8485e+01|  2.8485e+01|   -7.116886|  4.2754e-08|    0.011825|
|        1790|  1.0000e+00|  1.0000e+00|   -7.118948|  4.1793e-08|    0.011825|
|        1800|  1.0000e+00|  1.0000e+00|   -7.118989|  3.4959e-08|    0.011825|
+-----------------------------------------------------------------------+
|        File Writing Summary       |              Filename             |
+-----------------------------------------------------------------------+
|SU2 binary restart                 |restart_flow_aoa0.dat              |
|Paraview                           |flow_aoa0.vtu                      |
|Paraview surface                   |surface_flow_aoa0.vtu              |
+-----------------------------------------------------------------------+
+-----------------------------------------------------------------------------+
|  Inner_Iter|     Min CFL|     Max CFL|      rms[P]|  Cauchy[CD]|          CD|
+-----------------------------------------------------------------------------+
|        1810|  1.4400e+00|  1.4400e+00|   -7.119030|  3.3103e-08|    0.011825|
|        1820|  8.9161e+00|  8.9161e+00|   -7.119156|  3.3260e-08|    0.011825|
|        1830|  5.5206e+01|  5.5206e+01|   -7.119942|  3.4433e-08|    0.011825|
|        1840|  2.8485e+01|  2.8485e+01|   -7.124834|  3.7648e-08|    0.011825|
|        1850|  1.0000e+00|  1.0000e+00|   -7.125383|  3.8026e-08|    0.011825|
|        1860|  3.5832e+00|  3.5832e+00|   -7.125439|  3.5989e-08|    0.011825|
|        1870|  2.2186e+01|  2.2186e+01|   -7.125749|  3.3972e-08|    0.011825|
|        1880|  1.3737e+02|  1.3737e+02|   -7.127687|  3.6579e-08|    0.011825|
|        1890|  7.0880e+01|  7.0880e+01|   -7.131839|  3.8340e-08|    0.011824|
|        1900|  2.1165e+02|  2.1165e+02|   -7.137428|  4.0245e-08|    0.011824|
|        1910|  1.0000e+00|  1.0000e+00|   -7.140058|  3.8738e-08|    0.011824|
|        1920|  1.4400e+00|  1.4400e+00|   -7.140097|  3.3022e-08|    0.011824|
|        1930|  8.9161e+00|  8.9161e+00|   -7.140218|  3.1505e-08|    0.011824|
|        1940|  5.5206e+01|  5.5206e+01|   -7.140968|  3.2458e-08|    0.011824|
|        1950|  2.8485e+01|  2.8485e+01|   -7.145668|  3.4603e-08|    0.011824|
|        1960|  1.0000e+00|  1.0000e+00|   -7.146890|  3.5352e-08|    0.011824|
|        1970|  1.2000e+00|  1.2000e+00|   -7.146929|  3.2691e-08|    0.011824|
|        1980|  7.4301e+00|  7.4301e+00|   -7.147029|  3.2214e-08|    0.011824|
|        1990|  4.6005e+01|  4.6005e+01|   -7.147649|  3.3667e-08|    0.011824|
|        2000|  2.3738e+01|  2.3738e+01|   -7.151520|  3.6418e-08|    0.011824|
+-----------------------------------------------------------------------+
|        File Writing Summary       |              Filename             |
+-----------------------------------------------------------------------+
|SU2 binary restart                 |restart_flow_aoa0.dat              |
|Paraview                           |flow_aoa0.vtu                      |
|Paraview surface                   |surface_flow_aoa0.vtu              |
+-----------------------------------------------------------------------+
+-----------------------------------------------------------------------------+
|  Inner_Iter|     Min CFL|     Max CFL|      rms[P]|  Cauchy[CD]|          CD|
+-----------------------------------------------------------------------------+
|        2010|  1.4698e+02|  1.4698e+02|   -7.154332|  3.9438e-08|    0.011824|
|        2020|  1.0000e+00|  1.0000e+00|   -7.160988|  4.2197e-08|    0.011824|
|        2030|  1.0000e+00|  1.0000e+00|   -7.161030|  3.6919e-08|    0.011824|
|        2040|  1.0000e+00|  1.0000e+00|   -7.161067|  3.5420e-08|    0.011824|
|        2050|  5.1598e+00|  5.1598e+00|   -7.161135|  3.5472e-08|    0.011824|
|        2060|  3.1948e+01|  3.1948e+01|   -7.161552|  3.5935e-08|    0.011824|
|        2070|  1.0000e+00|  1.0000e+00|   -7.163683|  3.7178e-08|    0.011824|
|        2080|  1.0000e+00|  1.0000e+00|   -7.163721|  3.5950e-08|    0.011824|
|        2090|  1.0000e+00|  1.0000e+00|   -7.163758|  3.2672e-08|    0.011824|
|        2100|  1.4400e+00|  1.4400e+00|   -7.163796|  3.2005e-08|    0.011824|
|        2110|  8.9161e+00|  8.9161e+00|   -7.163912|  3.1913e-08|    0.011824|
|        2120|  5.5206e+01|  5.5206e+01|   -7.164636|  3.1414e-08|    0.011824|
|        2130|  2.8485e+01|  2.8485e+01|   -7.169136|  3.3960e-08|    0.011824|
|        2140|  1.7637e+02|  1.7637e+02|   -7.171424|  3.3984e-08|    0.011824|
|        2150|  1.0000e+00|  1.0000e+00|   -7.176647|  3.0706e-08|    0.011824|
|        2160|  6.1917e+00|  6.1917e+00|   -7.176726|  2.8906e-08|    0.011824|
|        2170|  3.8338e+01|  3.8338e+01|   -7.177210|  2.9530e-08|    0.011824|
|        2180|  2.3738e+02|  2.3738e+02|   -7.180251|  3.1524e-08|    0.011823|
|        2190|  1.0000e+00|  1.0000e+00|   -7.181967|  3.0937e-08|    0.011823|
|        2200|  2.0736e+00|  2.0736e+00|   -7.182005|  2.8682e-08|    0.011823|
+-----------------------------------------------------------------------+
|        File Writing Summary       |              Filename             |
+-----------------------------------------------------------------------+
|SU2 binary restart                 |restart_flow_aoa0.dat              |
|Paraview                           |flow_aoa0.vtu                      |
|Paraview surface                   |surface_flow_aoa0.vtu              |
+-----------------------------------------------------------------------+
+-----------------------------------------------------------------------------+
|  Inner_Iter|     Min CFL|     Max CFL|      rms[P]|  Cauchy[CD]|          CD|
+-----------------------------------------------------------------------------+
|        2210|  1.2839e+01|  1.2839e+01|   -7.182166|  2.7313e-08|    0.011823|
|        2220|  2.4883e+00|  2.4883e+00|   -7.182337|  2.7348e-08|    0.011823|
|        2230|  1.5407e+01|  1.5407e+01|   -7.182530|  2.7293e-08|    0.011823|
|        2240|  9.5396e+01|  9.5396e+01|   -7.183735|  2.8563e-08|    0.011823|
|        2250|  4.9222e+01|  4.9222e+01|   -7.187778|  2.7790e-08|    0.011823|
|        2260|  1.0000e+00|  1.0000e+00|   -7.189727|  2.6591e-08|    0.011823|
|        2270|  2.4883e+00|  2.4883e+00|   -7.189767|  2.2584e-08|    0.011823|
|        2280|  1.5407e+01|  1.5407e+01|   -7.189957|  2.2809e-08|    0.011823|
|        2290|  9.5396e+01|  9.5396e+01|   -7.191146|  2.3808e-08|    0.011823|
|        2300|  4.9222e+01|  4.9222e+01|   -7.195132|  2.6032e-08|    0.011823|
|        2310|  1.0000e+00|  1.0000e+00|   -7.197580|  2.7818e-08|    0.011823|
|        2320|  5.1598e+00|  5.1598e+00|   -7.197645|  2.6385e-08|    0.011823|
|        2330|  3.1948e+01|  3.1948e+01|   -7.198034|  2.6448e-08|    0.011823|
|        2340|  1.2000e+00|  1.2000e+00|   -7.199618|  2.7280e-08|    0.011823|
|        2350|  7.4301e+00|  7.4301e+00|   -7.199708|  2.7338e-08|    0.011823|
|        2360|  4.6005e+01|  4.6005e+01|   -7.200270|  2.7507e-08|    0.011823|
|        2370|  2.3738e+01|  2.3738e+01|   -7.203773|  3.1132e-08|    0.011823|
|        2380|  1.0000e+00|  1.0000e+00|   -7.205075|  2.6203e-08|    0.011823|
|        2390|  6.1917e+00|  6.1917e+00|   -7.205150|  2.4155e-08|    0.011823|
|        2400|  3.8338e+01|  3.8338e+01|   -7.205610|  2.2206e-08|    0.011823|
+-----------------------------------------------------------------------+
|        File Writing Summary       |              Filename             |
+-----------------------------------------------------------------------+
|SU2 binary restart                 |restart_flow_aoa0.dat              |
|Paraview                           |flow_aoa0.vtu                      |
|Paraview surface                   |surface_flow_aoa0.vtu              |
+-----------------------------------------------------------------------+
+-----------------------------------------------------------------------------+
|  Inner_Iter|     Min CFL|     Max CFL|      rms[P]|  Cauchy[CD]|          CD|
+-----------------------------------------------------------------------------+
|        2410|  2.3738e+02|  2.3738e+02|   -7.208492|  2.3850e-08|    0.011823|
|        2420|  1.2248e+02|  1.2248e+02|   -7.211347|  2.5140e-08|    0.011823|
|        2430|  1.0000e+00|  1.0000e+00|   -7.212185|  2.3660e-08|    0.011823|
|        2440|  2.9860e+00|  2.9860e+00|   -7.212228|  2.3309e-08|    0.011823|
|        2450|  1.8488e+01|  1.8488e+01|   -7.212447|  2.3622e-08|    0.011823|
|        2460|  1.0000e+00|  1.0000e+00|   -7.213814|  2.4547e-08|    0.011823|
|        2470|  4.2998e+00|  4.2998e+00|   -7.213891|  2.4462e-08|    0.011823|
|        2480|  2.6623e+01|  2.6623e+01|   -7.214207|  2.4339e-08|    0.011823|
|        2490|  1.0000e+00|  1.0000e+00|   -7.215816|  2.2087e-08|    0.011823|
|        2500|  1.0000e+00|  1.0000e+00|   -7.215850|  2.0088e-08|    0.011823|
|        2510|  2.9860e+00|  2.9860e+00|   -7.215892|  1.8143e-08|    0.011823|
|        2520|  1.8488e+01|  1.8488e+01|   -7.216111|  1.8307e-08|    0.011823|
|        2530|  1.1448e+02|  1.1448e+02|   -7.217471|  2.0533e-08|    0.011823|
|        2540|  4.9222e+00|  4.9222e+00|   -7.221128|  2.1557e-08|    0.011823|
|        2550|  1.4400e+00|  1.4400e+00|   -7.221335|  1.9265e-08|    0.011823|
|        2560|  1.7280e+00|  1.7280e+00|   -7.221388|  1.7005e-08|    0.011823|
|        2570|  1.0699e+01|  1.0699e+01|   -7.221512|  1.7114e-08|    0.011823|
|        2580|  5.5206e+00|  5.5206e+00|   -7.222285|  1.7979e-08|    0.011823|
|        2590|  3.5832e+00|  3.5832e+00|   -7.222528|  1.7188e-08|    0.011823|
|        2600|  2.2186e+01|  2.2186e+01|   -7.222787|  1.7210e-08|    0.011823|
+-----------------------------------------------------------------------+
|        File Writing Summary       |              Filename             |
+-----------------------------------------------------------------------+
|SU2 binary restart                 |restart_flow_aoa0.dat              |
|Paraview                           |flow_aoa0.vtu                      |
|Paraview surface                   |surface_flow_aoa0.vtu              |
+-----------------------------------------------------------------------+
+-----------------------------------------------------------------------------+
|  Inner_Iter|     Min CFL|     Max CFL|      rms[P]|  Cauchy[CD]|          CD|
+-----------------------------------------------------------------------------+
|        2610|  1.0000e+00|  1.0000e+00|   -7.222953|  1.7054e-08|    0.011823|
|        2620|  1.0000e+00|  1.0000e+00|   -7.222987|  1.3326e-08|    0.011823|
|        2630|  2.0736e+00|  2.0736e+00|   -7.223023|  1.3062e-08|    0.011823|
|        2640|  1.2839e+01|  1.2839e+01|   -7.223172|  1.3086e-08|    0.011823|
|        2650|  7.9497e+01|  7.9497e+01|   -7.224103|  1.3040e-08|    0.011823|
|        2660|  2.9860e+00|  2.9860e+00|   -7.224651|  1.1469e-08|    0.011823|
|        2670|  1.5407e+00|  1.5407e+00|   -7.224866|  9.6158e-09|    0.011823|
|        2680|  9.5396e+00|  9.5396e+00|   -7.224977|  8.9742e-09|    0.011823|
|        2690|  5.9067e+01|  5.9067e+01|   -7.225666|  9.1876e-09|    0.011823|
|        2700|  1.0000e+00|  1.0000e+00|   -7.226072|  8.8714e-09|    0.011823|
|        2710|  6.1917e+00|  6.1917e+00|   -7.226144|  7.7990e-09|    0.011823|
|        2720|  3.8338e+01|  3.8338e+01|   -7.226590|  7.8434e-09|    0.011823|
|        2730|  1.0000e+00|  1.0000e+00|   -7.227198|  8.2360e-09|    0.011823|
|        2740|  1.4400e+00|  1.4400e+00|   -7.227231|  7.7703e-09|    0.011823|
|        2750|  8.9161e+00|  8.9161e+00|   -7.227334|  7.9362e-09|    0.011823|
|        2760|  5.5206e+01|  5.5206e+01|   -7.227975|  9.7940e-09|    0.011823|
|        2770|  1.7280e+00|  1.7280e+00|   -7.228842|  1.0976e-08|    0.011823|
|        2780|  1.0699e+01|  1.0699e+01|   -7.228965|  8.5928e-09|    0.011823|
|        2790|  6.6247e+01|  6.6247e+01|   -7.229732|  7.5752e-09|    0.011823|
|        2800|  3.4182e+01|  3.4182e+01|   -7.233628|  1.0788e-08|    0.011823|
+-----------------------------------------------------------------------+
|        File Writing Summary       |              Filename             |
+-----------------------------------------------------------------------+
|SU2 binary restart                 |restart_flow_aoa0.dat              |
|Paraview                           |flow_aoa0.vtu                      |
|Paraview surface                   |surface_flow_aoa0.vtu              |
+-----------------------------------------------------------------------+
+-----------------------------------------------------------------------------+
|  Inner_Iter|     Min CFL|     Max CFL|      rms[P]|  Cauchy[CD]|          CD|
+-----------------------------------------------------------------------------+
|        2810|  1.0000e+00|  1.0000e+00|   -7.235201|  1.1756e-08|    0.011822|
|        2820|  2.9860e+00|  2.9860e+00|   -7.235241|  1.1661e-08|    0.011822|
|        2830|  1.8488e+01|  1.8488e+01|   -7.235451|  1.0927e-08|    0.011822|
|        2840|  1.0000e+00|  1.0000e+00|   -7.236301|  1.1186e-08|    0.011822|
|        2850|  1.0000e+00|  1.0000e+00|   -7.236333|  1.1111e-08|    0.011822|
|        2860|  4.2998e+00|  4.2998e+00|   -7.236385|  1.1109e-08|    0.011822|
|        2870|  2.6623e+01|  2.6623e+01|   -7.236688|  1.1186e-08|    0.011822|
|        2880|  1.0000e+00|  1.0000e+00|   -7.237653|  1.1467e-08|    0.011822|
|        2890|  3.5832e+00|  3.5832e+00|   -7.237699|  1.1420e-08|    0.011822|
|        2900|  2.2186e+01|  2.2186e+01|   -7.237951|  1.1158e-08|    0.011822|
|        2910|  1.3737e+02|  1.3737e+02|   -7.239521|  1.1728e-08|    0.011822|
|        2920|  1.0000e+00|  1.0000e+00|   -7.241619|  1.4286e-08|    0.011822|
|        2930|  1.0000e+00|  1.0000e+00|   -7.241651|  1.4262e-08|    0.011822|
|        2940|  5.1598e+00|  5.1598e+00|   -7.241710|  1.4067e-08|    0.011822|
|        2950|  3.1948e+01|  3.1948e+01|   -7.242068|  1.4305e-08|    0.011822|
|        2960|  1.0000e+00|  1.0000e+00|   -7.242737|  1.4478e-08|    0.011822|
|        2970|  4.2998e+00|  4.2998e+00|   -7.242788|  1.4439e-08|    0.011822|
|        2980|  2.6623e+01|  2.6623e+01|   -7.243087|  1.4148e-08|    0.011822|
|        2990|  1.6484e+02|  1.6484e+02|   -7.244947|  1.5634e-08|    0.011822|
|        3000|  1.0000e+00|  1.0000e+00|   -7.248080|  1.6443e-08|    0.011822|
+-----------------------------------------------------------------------+
|        File Writing Summary       |              Filename             |
+-----------------------------------------------------------------------+
|SU2 binary restart                 |restart_flow_aoa0.dat              |
|Paraview                           |flow_aoa0.vtu                      |
|Paraview surface                   |surface_flow_aoa0.vtu              |
+-----------------------------------------------------------------------+
+-----------------------------------------------------------------------------+
|  Inner_Iter|     Min CFL|     Max CFL|      rms[P]|  Cauchy[CD]|          CD|
+-----------------------------------------------------------------------------+
|        3010|  6.1917e+00|  6.1917e+00|   -7.248164|  1.4650e-08|    0.011822|
|        3020|  3.8338e+01|  3.8338e+01|   -7.248586|  1.4067e-08|    0.011822|
|        3030|  2.3738e+02|  2.3738e+02|   -7.251231|  1.5092e-08|    0.011822|
|        3040|  1.0000e+00|  1.0000e+00|   -7.253602|  1.5152e-08|    0.011822|
|        3050|  1.2000e+00|  1.2000e+00|   -7.253633|  1.1944e-08|    0.011822|
|        3060|  7.4301e+00|  7.4301e+00|   -7.253713|  1.1080e-08|    0.011822|
|        3070|  4.6005e+01|  4.6005e+01|   -7.254214|  1.2072e-08|    0.011822|
|        3080|  1.0000e+00|  1.0000e+00|   -7.254515|  1.2136e-08|    0.011822|
|        3090|  5.1598e+00|  5.1598e+00|   -7.254572|  1.1925e-08|    0.011822|
|        3100|  3.1948e+01|  3.1948e+01|   -7.254920|  1.2328e-08|    0.011822|
|        3110|  1.9781e+02|  1.9781e+02|   -7.257094|  1.3048e-08|    0.011822|
|        3120|  1.7280e+00|  1.7280e+00|   -7.258323|  1.3356e-08|    0.011822|
|        3130|  1.0699e+01|  1.0699e+01|   -7.258437|  1.3170e-08|    0.011822|
|        3140|  6.6247e+01|  6.6247e+01|   -7.259151|  1.4191e-08|    0.011822|
|        3150|  1.0000e+00|  1.0000e+00|   -7.260477|  1.5419e-08|    0.011822|
|        3160|  1.4400e+00|  1.4400e+00|   -7.260507|  1.4687e-08|    0.011822|
|        3170|  8.9161e+00|  8.9161e+00|   -7.260602|  1.2072e-08|    0.011822|
|        3180|  5.5206e+01|  5.5206e+01|   -7.261196|  1.2166e-08|    0.011822|
|        3190|  1.0000e+00|  1.0000e+00|   -7.262656|  1.2556e-08|    0.011822|
|        3200|  1.0000e+00|  1.0000e+00|   -7.262705|  1.2325e-08|    0.011822|
+-----------------------------------------------------------------------+
|        File Writing Summary       |              Filename             |
+-----------------------------------------------------------------------+
|SU2 binary restart                 |restart_flow_aoa0.dat              |
|Paraview                           |flow_aoa0.vtu                      |
|Paraview surface                   |surface_flow_aoa0.vtu              |
+-----------------------------------------------------------------------+
+-----------------------------------------------------------------------------+
|  Inner_Iter|     Min CFL|     Max CFL|      rms[P]|  Cauchy[CD]|          CD|
+-----------------------------------------------------------------------------+
|        3210|  3.5832e+00|  3.5832e+00|   -7.262747|  1.2181e-08|    0.011822|
|        3220|  2.2186e+01|  2.2186e+01|   -7.262984|  1.2367e-08|    0.011822|
|        3230|  1.1448e+01|  1.1448e+01|   -7.264462|  1.3250e-08|    0.011822|
|        3240|  4.2998e+00|  4.2998e+00|   -7.264893|  1.1793e-08|    0.011822|
|        3250|  2.6623e+01|  2.6623e+01|   -7.265176|  1.1123e-08|    0.011822|
|        3260|  1.6484e+02|  1.6484e+02|   -7.266942|  1.2349e-08|    0.011822|
|        3270|  1.0000e+00|  1.0000e+00|   -7.268561|  1.2534e-08|    0.011822|
|        3280|  1.7280e+00|  1.7280e+00|   -7.268592|  1.1425e-08|    0.011822|
|        3290|  1.0699e+01|  1.0699e+01|   -7.268703|  1.0424e-08|    0.011822|
|        3300|  6.6247e+01|  6.6247e+01|   -7.269400|  1.0881e-08|    0.011822|
|        3310|  3.4182e+01|  3.4182e+01|   -7.272969|  1.2090e-08|    0.011822|
|        3320|  1.2000e+00|  1.2000e+00|   -7.273844|  1.1536e-08|    0.011822|
|        3330|  7.4301e+00|  7.4301e+00|   -7.273921|  1.1363e-08|    0.011822|
|        3340|  4.6005e+01|  4.6005e+01|   -7.274399|  1.1916e-08|    0.011822|
|        3350|  1.4400e+00|  1.4400e+00|   -7.275928|  1.2327e-08|    0.011822|
|        3360|  8.9161e+00|  8.9161e+00|   -7.276020|  1.1650e-08|    0.011822|
|        3370|  5.5206e+01|  5.5206e+01|   -7.276594|  1.1453e-08|    0.011822|
|        3380|  1.0000e+00|  1.0000e+00|   -7.278424|  1.1901e-08|    0.011822|
|        3390|  1.0000e+00|  1.0000e+00|   -7.278453|  1.0890e-08|    0.011822|
|        3400|  1.0000e+00|  1.0000e+00|   -7.278483|  9.6129e-09|    0.011822|
+-----------------------------------------------------------------------+
|        File Writing Summary       |              Filename             |
+-----------------------------------------------------------------------+
|SU2 binary restart                 |restart_flow_aoa0.dat              |
|Paraview                           |flow_aoa0.vtu                      |
|Paraview surface                   |surface_flow_aoa0.vtu              |
+-----------------------------------------------------------------------+
+-----------------------------------------------------------------------------+
|  Inner_Iter|     Min CFL|     Max CFL|      rms[P]|  Cauchy[CD]|          CD|
+-----------------------------------------------------------------------------+
|        3410|  5.1598e+00|  5.1598e+00|   -7.278537|  9.6602e-09|    0.011822|
|        3420|  3.1948e+01|  3.1948e+01|   -7.278866|  1.0114e-08|    0.011822|
|        3430|  1.9781e+02|  1.9781e+02|   -7.280925|  1.2045e-08|    0.011822|
|        3440|  1.4400e+00|  1.4400e+00|   -7.282089|  1.1846e-08|    0.011822|
|        3450|  8.9161e+00|  8.9161e+00|   -7.282179|  1.1879e-08|    0.011822|
|        3460|  5.5206e+01|  5.5206e+01|   -7.282742|  1.2360e-08|    0.011822|
|        3470|  2.8485e+01|  2.8485e+01|   -7.286272|  1.3477e-08|    0.011822|
|        3480|  1.7637e+02|  1.7637e+02|   -7.288066|  1.4135e-08|    0.011822|
|        3490|  2.1165e+00|  2.1165e+00|   -7.293950|  1.7189e-08|    0.011822|
|        3500|  1.0000e+00|  1.0000e+00|   -7.294039|  1.6883e-08|    0.011822|
|        3510|  1.0000e+00|  1.0000e+00|   -7.294067|  1.5579e-08|    0.011822|
|        3520|  1.7280e+00|  1.7280e+00|   -7.294095|  1.4597e-08|    0.011822|
|        3530|  1.0699e+01|  1.0699e+01|   -7.294200|  1.4638e-08|    0.011822|
|        3540|  6.6247e+01|  6.6247e+01|   -7.294854|  1.4713e-08|    0.011822|
|        3550|  1.0000e+00|  1.0000e+00|   -7.298226|  1.5393e-08|    0.011822|
|        3560|  1.2000e+00|  1.2000e+00|   -7.298258|  1.4056e-08|    0.011822|
|        3570|  7.4301e+00|  7.4301e+00|   -7.298331|  1.3662e-08|    0.011822|
|        3580|  4.6005e+01|  4.6005e+01|   -7.298780|  1.4150e-08|    0.011822|
|        3590|  2.3738e+01|  2.3738e+01|   -7.301610|  1.5977e-08|    0.011822|
|        3600|  1.4698e+02|  1.4698e+02|   -7.303668|  1.6406e-08|    0.011821|
+-----------------------------------------------------------------------+
|        File Writing Summary       |              Filename             |
+-----------------------------------------------------------------------+
|SU2 binary restart                 |restart_flow_aoa0.dat              |
|Paraview                           |flow_aoa0.vtu                      |
|Paraview surface                   |surface_flow_aoa0.vtu              |
+-----------------------------------------------------------------------+
+-----------------------------------------------------------------------------+
|  Inner_Iter|     Min CFL|     Max CFL|      rms[P]|  Cauchy[CD]|          CD|
+-----------------------------------------------------------------------------+
|        3610|  1.0000e+00|  1.0000e+00|   -7.308552|  1.8260e-08|    0.011821|
|        3620|  1.0000e+00|  1.0000e+00|   -7.308582|  1.8088e-08|    0.011821|
|        3630|  1.0000e+00|  1.0000e+00|   -7.308609|  1.7558e-08|    0.011821|
|        3640|  1.2000e+00|  1.2000e+00|   -7.308636|  1.7558e-08|    0.011821|
|        3650|  7.4301e+00|  7.4301e+00|   -7.308706|  1.7610e-08|    0.011821|
|        3660|  4.6005e+01|  4.6005e+01|   -7.309142|  1.7969e-08|    0.011821|
|        3670|  1.0000e+00|  1.0000e+00|   -7.310548|  1.7985e-08|    0.011821|
|        3680|  1.2000e+00|  1.2000e+00|   -7.310575|  1.5927e-08|    0.011821|
|        3690|  7.4301e+00|  7.4301e+00|   -7.310645|  1.5684e-08|    0.011821|
|        3700|  4.6005e+01|  4.6005e+01|   -7.311085|  1.5799e-08|    0.011821|
|        3710|  2.3738e+01|  2.3738e+01|   -7.313841|  1.8393e-08|    0.011821|
|        3720|  1.4698e+02|  1.4698e+02|   -7.315840|  1.8336e-08|    0.011821|
|        3730|  1.0000e+00|  1.0000e+00|   -7.317716|  1.6896e-08|    0.011821|
|        3740|  1.0000e+00|  1.0000e+00|   -7.317743|  1.3778e-08|    0.011821|
|        3750|  1.7280e+00|  1.7280e+00|   -7.317770|  1.3769e-08|    0.011821|
|        3760|  1.0699e+01|  1.0699e+01|   -7.317869|  1.3788e-08|    0.011821|
|        3770|  6.6247e+01|  6.6247e+01|   -7.318489|  1.3930e-08|    0.011821|
|        3780|  1.0000e+00|  1.0000e+00|   -7.320023|  1.4295e-08|    0.011821|
|        3790|  1.0000e+00|  1.0000e+00|   -7.320049|  1.4119e-08|    0.011821|
|        3800|  2.9860e+00|  2.9860e+00|   -7.320082|  1.2957e-08|    0.011821|
+-----------------------------------------------------------------------+
|        File Writing Summary       |              Filename             |
+-----------------------------------------------------------------------+
|SU2 binary restart                 |restart_flow_aoa0.dat              |
|Paraview                           |flow_aoa0.vtu                      |
|Paraview surface                   |surface_flow_aoa0.vtu              |
+-----------------------------------------------------------------------+
+-----------------------------------------------------------------------------+
|  Inner_Iter|     Min CFL|     Max CFL|      rms[P]|  Cauchy[CD]|          CD|
+-----------------------------------------------------------------------------+
|        3810|  1.8488e+01|  1.8488e+01|   -7.320254|  1.3063e-08|    0.011821|
|        3820|  1.1448e+02|  1.1448e+02|   -7.321330|  1.4043e-08|    0.011821|
|        3830|  5.9067e+01|  5.9067e+01|   -7.324237|  1.5190e-08|    0.011821|
|        3840|  2.1165e+02|  2.1165e+02|   -7.327542|  1.4095e-08|    0.011821|
|        3850|  2.1165e+02|  2.1165e+02|   -7.333164|  1.5276e-08|    0.011821|
|        3860|  1.0000e+00|  1.0000e+00|   -7.336013|  1.4837e-08|    0.011821|
|        3870|  6.1917e+00|  6.1917e+00|   -7.336069|  1.4866e-08|    0.011821|
|        3880|  3.8338e+01|  3.8338e+01|   -7.336408|  1.5095e-08|    0.011821|
|        3890|  2.3738e+02|  2.3738e+02|   -7.338558|  1.6281e-08|    0.011821|
|        3900|  1.0207e+01|  1.0207e+01|   -7.340694|  1.7908e-08|    0.011821|
|        3910|  4.2998e+00|  4.2998e+00|   -7.341016|  1.7574e-08|    0.011821|
|        3920|  1.0000e+00|  1.0000e+00|   -7.341251|  1.7324e-08|    0.011821|
|        3930|  2.9860e+00|  2.9860e+00|   -7.341284|  1.7350e-08|    0.011821|
|        3940|  1.8488e+01|  1.8488e+01|   -7.341447|  1.7490e-08|    0.011821|
|        3950|  1.1448e+02|  1.1448e+02|   -7.342468|  1.7705e-08|    0.011821|
|        3960|  5.9067e+01|  5.9067e+01|   -7.345226|  1.5917e-08|    0.011821|
|        3970|  2.1165e+02|  2.1165e+02|   -7.348360|  1.6077e-08|    0.011821|
|        3980|  2.1165e+02|  2.1165e+02|   -7.353696|  1.8263e-08|    0.011821|
|        3990|  2.1165e+02|  2.1165e+02|   -7.358962|  2.1080e-08|    0.011821|
|        4000|  2.1165e+02|  2.1165e+02|   -7.364151|  2.3425e-08|    0.011821|
+-----------------------------------------------------------------------+
|        File Writing Summary       |              Filename             |
+-----------------------------------------------------------------------+
|SU2 binary restart                 |restart_flow_aoa0.dat              |
|Paraview                           |flow_aoa0.vtu                      |
|Paraview surface                   |surface_flow_aoa0.vtu              |
+-----------------------------------------------------------------------+
+-----------------------------------------------------------------------------+
|  Inner_Iter|     Min CFL|     Max CFL|      rms[P]|  Cauchy[CD]|          CD|
+-----------------------------------------------------------------------------+
|        4010|  2.1165e+02|  2.1165e+02|   -7.369264|  2.5662e-08|    0.011821|
|        4020|  2.1165e+02|  2.1165e+02|   -7.374307|  2.7744e-08|    0.011821|
|        4030|  2.1165e+02|  2.1165e+02|   -7.379283|  2.9509e-08|    0.011821|
|        4040|  2.1165e+02|  2.1165e+02|   -7.384194|  3.1643e-08|    0.011821|
|        4050|  2.1165e+02|  2.1165e+02|   -7.389042|  3.3715e-08|    0.011820|
|        4060|  2.1165e+02|  2.1165e+02|   -7.393829|  3.5621e-08|    0.011820|
|        4070|  2.1165e+02|  2.1165e+02|   -7.398554|  3.6543e-08|    0.011820|
|        4080|  2.1165e+02|  2.1165e+02|   -7.403221|  3.6755e-08|    0.011820|
|        4090|  2.1165e+02|  2.1165e+02|   -7.407829|  3.7267e-08|    0.011820|
|        4100|  2.1165e+02|  2.1165e+02|   -7.412381|  3.6678e-08|    0.011820|
|        4110|  2.1165e+02|  2.1165e+02|   -7.416876|  3.7006e-08|    0.011820|
|        4120|  2.1165e+02|  2.1165e+02|   -7.421317|  3.8715e-08|    0.011820|
|        4130|  2.1165e+02|  2.1165e+02|   -7.425702|  4.0181e-08|    0.011820|
|        4140|  2.1165e+02|  2.1165e+02|   -7.430036|  4.0650e-08|    0.011820|
|        4150|  2.1165e+02|  2.1165e+02|   -7.434316|  4.0587e-08|    0.011820|
|        4160|  2.1165e+02|  2.1165e+02|   -7.438546|  4.2105e-08|    0.011820|
|        4170|  2.1165e+02|  2.1165e+02|   -7.442726|  4.3406e-08|    0.011820|
|        4180|  2.1165e+02|  2.1165e+02|   -7.446858|  4.4914e-08|    0.011820|
|        4190|  2.1165e+02|  2.1165e+02|   -7.450944|  4.6255e-08|    0.011820|
|        4200|  2.1165e+02|  2.1165e+02|   -7.454981|  4.7340e-08|    0.011820|
+-----------------------------------------------------------------------+
|        File Writing Summary       |              Filename             |
+-----------------------------------------------------------------------+
|SU2 binary restart                 |restart_flow_aoa0.dat              |
|Paraview                           |flow_aoa0.vtu                      |
|Paraview surface                   |surface_flow_aoa0.vtu              |
+-----------------------------------------------------------------------+
+-----------------------------------------------------------------------------+
|  Inner_Iter|     Min CFL|     Max CFL|      rms[P]|  Cauchy[CD]|          CD|
+-----------------------------------------------------------------------------+
|        4210|  2.1165e+02|  2.1165e+02|   -7.458959|  4.7472e-08|    0.011820|
|        4220|  2.1165e+02|  2.1165e+02|   -7.462887|  4.7469e-08|    0.011820|
|        4230|  2.1165e+02|  2.1165e+02|   -7.466774|  4.6429e-08|    0.011820|
|        4240|  2.1165e+02|  2.1165e+02|   -7.470617|  4.4981e-08|    0.011820|
|        4250|  2.1165e+02|  2.1165e+02|   -7.474415|  4.3977e-08|    0.011820|
|        4260|  2.1165e+02|  2.1165e+02|   -7.478168|  4.3030e-08|    0.011820|
|        4270|  2.1165e+02|  2.1165e+02|   -7.481876|  4.2090e-08|    0.011820|
|        4280|  2.1165e+02|  2.1165e+02|   -7.485542|  4.1173e-08|    0.011820|
|        4290|  2.1165e+02|  2.1165e+02|   -7.489167|  4.0290e-08|    0.011820|
|        4300|  2.1165e+02|  2.1165e+02|   -7.492750|  3.9442e-08|    0.011819|
|        4310|  2.1165e+02|  2.1165e+02|   -7.496290|  3.8631e-08|    0.011819|
|        4320|  2.1165e+02|  2.1165e+02|   -7.499788|  3.7854e-08|    0.011819|
|        4330|  2.1165e+02|  2.1165e+02|   -7.503240|  3.7110e-08|    0.011819|
|        4340|  2.1165e+02|  2.1165e+02|   -7.506625|  3.6393e-08|    0.011819|
|        4350|  2.1165e+02|  2.1165e+02|   -7.509982|  3.5711e-08|    0.011819|
|        4360|  2.1165e+02|  2.1165e+02|   -7.513311|  3.5053e-08|    0.011819|
|        4370|  2.1165e+02|  2.1165e+02|   -7.516602|  3.4425e-08|    0.011819|
|        4380|  2.1165e+02|  2.1165e+02|   -7.519855|  3.3821e-08|    0.011819|
|        4390|  2.1165e+02|  2.1165e+02|   -7.523075|  3.3245e-08|    0.011819|
|        4400|  2.1165e+02|  2.1165e+02|   -7.526270|  3.2693e-08|    0.011819|
+-----------------------------------------------------------------------+
|        File Writing Summary       |              Filename             |
+-----------------------------------------------------------------------+
|SU2 binary restart                 |restart_flow_aoa0.dat              |
|Paraview                           |flow_aoa0.vtu                      |
|Paraview surface                   |surface_flow_aoa0.vtu              |
+-----------------------------------------------------------------------+
+-----------------------------------------------------------------------------+
|  Inner_Iter|     Min CFL|     Max CFL|      rms[P]|  Cauchy[CD]|          CD|
+-----------------------------------------------------------------------------+
|        4410|  2.1165e+02|  2.1165e+02|   -7.529446|  3.2165e-08|    0.011819|
|        4420|  2.5398e+02|  2.5398e+02|   -7.532605|  3.1660e-08|    0.011819|
|        4430|  1.3105e+02|  1.3105e+02|   -7.533901|  3.0661e-08|    0.011819|
|        4440|  2.2645e+02|  2.2645e+02|   -7.536784|  3.0388e-08|    0.011819|
|        4450|  2.2645e+02|  2.2645e+02|   -7.540081|  2.9558e-08|    0.011819|
|        4460|  2.2645e+02|  2.2645e+02|   -7.543315|  2.9489e-08|    0.011819|
|        4470|  2.2645e+02|  2.2645e+02|   -7.546515|  2.9027e-08|    0.011819|
|        4480|  2.2645e+02|  2.2645e+02|   -7.549678|  2.8781e-08|    0.011819|
|        4490|  2.2645e+02|  2.2645e+02|   -7.552805|  2.8446e-08|    0.011819|
|        4500|  2.2645e+02|  2.2645e+02|   -7.555897|  2.8187e-08|    0.011819|
|        4510|  2.2645e+02|  2.2645e+02|   -7.558955|  2.7922e-08|    0.011819|
|        4520|  2.2645e+02|  2.2645e+02|   -7.561979|  2.7682e-08|    0.011819|
|        4530|  2.2645e+02|  2.2645e+02|   -7.564970|  2.7450e-08|    0.011819|
|        4540|  2.2645e+02|  2.2645e+02|   -7.567928|  2.7233e-08|    0.011819|
|        4550|  2.2645e+02|  2.2645e+02|   -7.570847|  2.7026e-08|    0.011819|
|        4560|  2.2645e+02|  2.2645e+02|   -7.573730|  2.6832e-08|    0.011819|
|        4570|  2.2645e+02|  2.2645e+02|   -7.576581|  2.6649e-08|    0.011819|
|        4580|  2.2645e+02|  2.2645e+02|   -7.579400|  2.6474e-08|    0.011819|
|        4590|  2.2645e+02|  2.2645e+02|   -7.582187|  2.6311e-08|    0.011819|
|        4600|  2.2645e+02|  2.2645e+02|   -7.584943|  2.6149e-08|    0.011819|
+-----------------------------------------------------------------------+
|        File Writing Summary       |              Filename             |
+-----------------------------------------------------------------------+
|SU2 binary restart                 |restart_flow_aoa0.dat              |
|Paraview                           |flow_aoa0.vtu                      |
|Paraview surface                   |surface_flow_aoa0.vtu              |
+-----------------------------------------------------------------------+
+-----------------------------------------------------------------------------+
|  Inner_Iter|     Min CFL|     Max CFL|      rms[P]|  Cauchy[CD]|          CD|
+-----------------------------------------------------------------------------+
|        4610|  2.2645e+02|  2.2645e+02|   -7.587666|  2.5995e-08|    0.011819|
|        4620|  2.2645e+02|  2.2645e+02|   -7.590357|  2.5843e-08|    0.011819|
|        4630|  2.2645e+02|  2.2645e+02|   -7.593017|  2.5695e-08|    0.011819|
|        4640|  2.2645e+02|  2.2645e+02|   -7.595644|  2.5548e-08|    0.011819|
|        4650|  2.2645e+02|  2.2645e+02|   -7.598240|  2.5401e-08|    0.011819|
|        4660|  2.2645e+02|  2.2645e+02|   -7.600804|  2.5252e-08|    0.011819|
|        4670|  2.2645e+02|  2.2645e+02|   -7.603338|  2.5100e-08|    0.011819|
|        4680|  2.2645e+02|  2.2645e+02|   -7.605842|  2.5458e-08|    0.011818|
|        4690|  2.2645e+02|  2.2645e+02|   -7.608315|  2.5104e-08|    0.011818|
|        4700|  2.2645e+02|  2.2645e+02|   -7.610759|  2.5321e-08|    0.011818|
|        4710|  2.2645e+02|  2.2645e+02|   -7.613174|  2.4788e-08|    0.011818|
|        4720|  2.2645e+02|  2.2645e+02|   -7.615559|  2.4653e-08|    0.011818|
|        4730|  2.2645e+02|  2.2645e+02|   -7.617917|  2.4309e-08|    0.011818|
|        4740|  2.2645e+02|  2.2645e+02|   -7.620246|  2.4056e-08|    0.011818|
|        4750|  2.2645e+02|  2.2645e+02|   -7.622548|  2.3730e-08|    0.011818|
|        4760|  2.2645e+02|  2.2645e+02|   -7.624824|  2.3411e-08|    0.011818|
|        4770|  2.2645e+02|  2.2645e+02|   -7.627073|  2.3066e-08|    0.011818|
|        4780|  2.2645e+02|  2.2645e+02|   -7.629296|  2.2711e-08|    0.011818|
|        4790|  8.1140e+01|  8.1140e+01|   -7.630626|  2.2034e-08|    0.011818|
|        4800|  2.4228e+02|  2.4228e+02|   -7.632160|  2.1720e-08|    0.011818|
+-----------------------------------------------------------------------+
|        File Writing Summary       |              Filename             |
+-----------------------------------------------------------------------+
|SU2 binary restart                 |restart_flow_aoa0.dat              |
|Paraview                           |flow_aoa0.vtu                      |
|Paraview surface                   |surface_flow_aoa0.vtu              |
+-----------------------------------------------------------------------+
+-----------------------------------------------------------------------------+
|  Inner_Iter|     Min CFL|     Max CFL|      rms[P]|  Cauchy[CD]|          CD|
+-----------------------------------------------------------------------------+
|        4810|  2.4228e+02|  2.4228e+02|   -7.634482|  2.1270e-08|    0.011818|
|        4820|  2.4228e+02|  2.4228e+02|   -7.636787|  2.0998e-08|    0.011818|
|        4830|  2.4228e+02|  2.4228e+02|   -7.639054|  2.0604e-08|    0.011818|
|        4840|  2.4228e+02|  2.4228e+02|   -7.641285|  2.0232e-08|    0.011818|
|        4850|  2.4228e+02|  2.4228e+02|   -7.643484|  1.9808e-08|    0.011818|
|        4860|  2.4228e+02|  2.4228e+02|   -7.645654|  1.9410e-08|    0.011818|
|        4870|  2.4228e+02|  2.4228e+02|   -7.647794|  1.8997e-08|    0.011818|
|        4880|  2.4228e+02|  2.4228e+02|   -7.649906|  1.8593e-08|    0.011818|
|        4890|  2.4228e+02|  2.4228e+02|   -7.651991|  1.8190e-08|    0.011818|
|        4900|  2.4228e+02|  2.4228e+02|   -7.654048|  1.7798e-08|    0.011818|
|        4910|  2.4228e+02|  2.4228e+02|   -7.656077|  1.7421e-08|    0.011818|
|        4920|  2.4228e+02|  2.4228e+02|   -7.658078|  1.7062e-08|    0.011818|
|        4930|  2.4228e+02|  2.4228e+02|   -7.660052|  1.6723e-08|    0.011818|
|        4940|  2.4228e+02|  2.4228e+02|   -7.661999|  1.6406e-08|    0.011818|
|        4950|  2.4228e+02|  2.4228e+02|   -7.663919|  1.6112e-08|    0.011818|
|        4960|  2.4228e+02|  2.4228e+02|   -7.665812|  1.5839e-08|    0.011818|
|        4970|  2.4228e+02|  2.4228e+02|   -7.667680|  1.5586e-08|    0.011818|
|        4980|  2.4228e+02|  2.4228e+02|   -7.669524|  1.5351e-08|    0.011818|
|        4990|  2.4228e+02|  2.4228e+02|   -7.671343|  1.5131e-08|    0.011818|
|        5000|  2.4228e+02|  2.4228e+02|   -7.673139|  1.4922e-08|    0.011818|
+-----------------------------------------------------------------------+
|        File Writing Summary       |              Filename             |
+-----------------------------------------------------------------------+
|SU2 binary restart                 |restart_flow_aoa0.dat              |
|Paraview                           |flow_aoa0.vtu                      |
|Paraview surface                   |surface_flow_aoa0.vtu              |
+-----------------------------------------------------------------------+
+-----------------------------------------------------------------------------+
|  Inner_Iter|     Min CFL|     Max CFL|      rms[P]|  Cauchy[CD]|          CD|
+-----------------------------------------------------------------------------+
|        5010|  2.4228e+02|  2.4228e+02|   -7.674912|  1.4724e-08|    0.011818|
|        5020|  2.4228e+02|  2.4228e+02|   -7.676662|  1.4535e-08|    0.011818|
|        5030|  2.4228e+02|  2.4228e+02|   -7.678390|  1.4354e-08|    0.011818|
|        5040|  2.4228e+02|  2.4228e+02|   -7.680095|  1.4487e-08|    0.011818|
|        5050|  2.4228e+02|  2.4228e+02|   -7.681777|  1.4254e-08|    0.011818|
|        5060|  2.4228e+02|  2.4228e+02|   -7.683436|  1.4155e-08|    0.011818|
|        5070|  2.4228e+02|  2.4228e+02|   -7.685070|  1.3880e-08|    0.011818|
|        5080|  2.4228e+02|  2.4228e+02|   -7.686681|  1.3733e-08|    0.011818|
|        5090|  2.4228e+02|  2.4228e+02|   -7.688266|  1.3571e-08|    0.011818|
|        5100|  2.4228e+02|  2.4228e+02|   -7.689828|  1.3469e-08|    0.011818|
|        5110|  2.4228e+02|  2.4228e+02|   -7.691366|  1.3347e-08|    0.011818|
|        5120|  8.6815e+01|  8.6815e+01|   -7.692275|  1.3054e-08|    0.011818|
|        5130|  2.5923e+02|  2.5923e+02|   -7.693316|  1.3120e-08|    0.011818|
|        5140|  2.5923e+02|  2.5923e+02|   -7.694927|  1.2931e-08|    0.011818|
|        5150|  2.5923e+02|  2.5923e+02|   -7.696523|  1.2941e-08|    0.011818|
|        5160|  2.5923e+02|  2.5923e+02|   -7.698077|  1.2803e-08|    0.011818|
|        5170|  2.5923e+02|  2.5923e+02|   -7.699596|  1.2749e-08|    0.011818|
|        5180|  2.5923e+02|  2.5923e+02|   -7.701088|  1.2610e-08|    0.011818|
|        5190|  2.5923e+02|  2.5923e+02|   -7.702556|  1.2503e-08|    0.011818|
|        5200|  2.5923e+02|  2.5923e+02|   -7.704001|  1.2373e-08|    0.011818|
+-----------------------------------------------------------------------+
|        File Writing Summary       |              Filename             |
+-----------------------------------------------------------------------+
|SU2 binary restart                 |restart_flow_aoa0.dat              |
|Paraview                           |flow_aoa0.vtu                      |
|Paraview surface                   |surface_flow_aoa0.vtu              |
+-----------------------------------------------------------------------+
+-----------------------------------------------------------------------------+
|  Inner_Iter|     Min CFL|     Max CFL|      rms[P]|  Cauchy[CD]|          CD|
+-----------------------------------------------------------------------------+
|        5210|  2.5923e+02|  2.5923e+02|   -7.705425|  1.2241e-08|    0.011818|
|        5220|  2.5923e+02|  2.5923e+02|   -7.706829|  1.2102e-08|    0.011818|
|        5230|  2.5923e+02|  2.5923e+02|   -7.708213|  1.1960e-08|    0.011818|
|        5240|  2.5923e+02|  2.5923e+02|   -7.709577|  1.1818e-08|    0.011818|
|        5250|  2.5923e+02|  2.5923e+02|   -7.710921|  1.1680e-08|    0.011818|
|        5260|  2.5923e+02|  2.5923e+02|   -7.712244|  1.1549e-08|    0.011818|
|        5270|  2.5923e+02|  2.5923e+02|   -7.713547|  1.1429e-08|    0.011818|
|        5280|  2.5923e+02|  2.5923e+02|   -7.714829|  1.1320e-08|    0.011818|
|        5290|  2.5923e+02|  2.5923e+02|   -7.716092|  1.1220e-08|    0.011818|
|        5300|  2.5923e+02|  2.5923e+02|   -7.717335|  1.1128e-08|    0.011818|
|        5310|  2.5923e+02|  2.5923e+02|   -7.718561|  1.1038e-08|    0.011818|
|        5320|  2.5923e+02|  2.5923e+02|   -7.719769|  1.0949e-08|    0.011818|
|        5330|  2.5923e+02|  2.5923e+02|   -7.720961|  1.0858e-08|    0.011818|
|        5340|  2.5923e+02|  2.5923e+02|   -7.722137|  1.0763e-08|    0.011818|
|        5350|  2.5923e+02|  2.5923e+02|   -7.723299|  1.0665e-08|    0.011818|
|        5360|  2.5923e+02|  2.5923e+02|   -7.724445|  1.0565e-08|    0.011818|
|        5370|  2.5923e+02|  2.5923e+02|   -7.725576|  1.0657e-08|    0.011818|
|        5380|  2.5923e+02|  2.5923e+02|   -7.726693|  1.0387e-08|    0.011818|
|        5390|  2.5923e+02|  2.5923e+02|   -7.727796|  1.0378e-08|    0.011818|
|        5400|  2.5923e+02|  2.5923e+02|   -7.728886|  1.0167e-08|    0.011818|
+-----------------------------------------------------------------------+
|        File Writing Summary       |              Filename             |
+-----------------------------------------------------------------------+
|SU2 binary restart                 |restart_flow_aoa0.dat              |
|Paraview                           |flow_aoa0.vtu                      |
|Paraview surface                   |surface_flow_aoa0.vtu              |
+-----------------------------------------------------------------------+
+-----------------------------------------------------------------------------+
|  Inner_Iter|     Min CFL|     Max CFL|      rms[P]|  Cauchy[CD]|          CD|
+-----------------------------------------------------------------------------+
|        5410|  2.5923e+02|  2.5923e+02|   -7.729964|  1.0099e-08|    0.011818|
|        5420|  2.5923e+02|  2.5923e+02|   -7.731029|  9.9401e-09|    0.011818|
|        5430|  2.5923e+02|  2.5923e+02|   -7.732084|  9.8554e-09|    0.011818|
|        5440|  2.5923e+02|  2.5923e+02|   -7.733128|  9.7300e-09|    0.011818|
|        5450|  2.5923e+02|  2.5923e+02|   -7.734162|  9.6192e-09|    0.011817|
|        5460|  2.5923e+02|  2.5923e+02|   -7.735188|  9.5026e-09|    0.011817|
|        5470|  2.5923e+02|  2.5923e+02|   -7.736204|  9.3900e-09|    0.011817|
|        5480|  2.5923e+02|  2.5923e+02|   -7.737214|  9.2796e-09|    0.011817|
|        5490|  2.5923e+02|  2.5923e+02|   -7.738216|  9.1728e-09|    0.011817|
|        5500|  2.5923e+02|  2.5923e+02|   -7.739212|  9.0689e-09|    0.011817|
|        5510|  2.5923e+02|  2.5923e+02|   -7.740202|  8.9669e-09|    0.011817|
|        5520|  2.5923e+02|  2.5923e+02|   -7.741187|  8.8659e-09|    0.011817|
|        5530|  2.5923e+02|  2.5923e+02|   -7.742169|  8.7656e-09|    0.011817|
|        5540|  2.5923e+02|  2.5923e+02|   -7.743148|  8.6663e-09|    0.011817|
|        5550|  2.5923e+02|  2.5923e+02|   -7.744124|  8.5684e-09|    0.011817|
|        5560|  2.5923e+02|  2.5923e+02|   -7.745099|  8.4724e-09|    0.011817|
|        5570|  2.5923e+02|  2.5923e+02|   -7.746073|  8.3782e-09|    0.011817|
|        5580|  2.5923e+02|  2.5923e+02|   -7.747047|  8.2856e-09|    0.011817|
|        5590|  2.5923e+02|  2.5923e+02|   -7.748022|  8.1944e-09|    0.011817|
|        5600|  2.5923e+02|  2.5923e+02|   -7.748999|  8.1044e-09|    0.011817|
+-----------------------------------------------------------------------+
|        File Writing Summary       |              Filename             |
+-----------------------------------------------------------------------+
|SU2 binary restart                 |restart_flow_aoa0.dat              |
|Paraview                           |flow_aoa0.vtu                      |
|Paraview surface                   |surface_flow_aoa0.vtu              |
+-----------------------------------------------------------------------+
+-----------------------------------------------------------------------------+
|  Inner_Iter|     Min CFL|     Max CFL|      rms[P]|  Cauchy[CD]|          CD|
+-----------------------------------------------------------------------------+
|        5610|  2.5923e+02|  2.5923e+02|   -7.749979|  8.0156e-09|    0.011817|
|        5620|  2.5923e+02|  2.5923e+02|   -7.750962|  7.9281e-09|    0.011817|
|        5630|  2.5923e+02|  2.5923e+02|   -7.751949|  7.8420e-09|    0.011817|
|        5640|  2.5923e+02|  2.5923e+02|   -7.752942|  7.7571e-09|    0.011817|
|        5650|  2.5923e+02|  2.5923e+02|   -7.753942|  7.6735e-09|    0.011817|
|        5660|  2.5923e+02|  2.5923e+02|   -7.754948|  7.5911e-09|    0.011817|
|        5670|  2.5923e+02|  2.5923e+02|   -7.755963|  7.5099e-09|    0.011817|
|        5680|  2.5923e+02|  2.5923e+02|   -7.756986|  7.4299e-09|    0.011817|
|        5690|  2.5923e+02|  2.5923e+02|   -7.758020|  7.3511e-09|    0.011817|
|        5700|  2.5923e+02|  2.5923e+02|   -7.759065|  7.2734e-09|    0.011817|
|        5710|  2.5923e+02|  2.5923e+02|   -7.760121|  7.1968e-09|    0.011817|
|        5720|  2.5923e+02|  2.5923e+02|   -7.761191|  7.1213e-09|    0.011817|
|        5730|  2.5923e+02|  2.5923e+02|   -7.762275|  7.0469e-09|    0.011817|
[...]
+-----------------------------------------------------------------------+
|SU2 binary restart                 |restart_flow_aoa0.dat              |
|Paraview                           |flow_aoa0.vtu                      |
|Paraview surface                   |surface_flow_aoa0.vtu              |
+-----------------------------------------------------------------------+
+-----------------------------------------------------------------------------+
|  Inner_Iter|     Min CFL|     Max CFL|      rms[P]|  Cauchy[CD]|          CD|
+-----------------------------------------------------------------------------+
|        8010|  2.3445e+02|  2.3445e+02|   -8.794050|  1.3953e-09|    0.011817|
|        8020|  2.3445e+02|  2.3445e+02|   -8.796719|  1.3897e-09|    0.011817|
|        8030|  2.3445e+02|  2.3445e+02|   -8.799246|  1.3830e-09|    0.011817|
|        8040|  2.3445e+02|  2.3445e+02|   -8.801631|  1.3776e-09|    0.011817|
|        8050|  2.3445e+02|  2.3445e+02|   -8.803875|  1.3720e-09|    0.011817|
|        8060|  2.3445e+02|  2.3445e+02|   -8.805978|  1.3667e-09|    0.011817|
|        8070|  8.4007e+01|  8.4007e+01|   -8.807237|  1.3404e-09|    0.011817|
|        8080|  3.6122e+01|  3.6122e+01|   -8.808261|  1.3607e-09|    0.011817|
|        8090|  2.2366e+02|  2.2366e+02|   -8.808859|  1.4016e-09|    0.011817|
|        8100|  1.1540e+02|  1.1540e+02|   -8.809534|  1.4236e-09|    0.011817|
|        8110|  2.3930e+02|  2.3930e+02|   -8.810753|  1.4585e-09|    0.011817|
|        8120|  2.3930e+02|  2.3930e+02|   -8.812509|  1.4366e-09|    0.011817|
|        8130|  2.3930e+02|  2.3930e+02|   -8.814102|  1.4271e-09|    0.011817|
|        8140|  2.3930e+02|  2.3930e+02|   -8.815478|  1.3575e-09|    0.011817|
|        8150|  2.3930e+02|  2.3930e+02|   -8.816699|  1.3502e-09|    0.011817|
|        8160|  2.3930e+02|  2.3930e+02|   -8.817800|  1.3275e-09|    0.011817|
|        8170|  2.3930e+02|  2.3930e+02|   -8.818777|  1.3109e-09|    0.011817|
|        8180|  2.3930e+02|  2.3930e+02|   -8.819619|  1.3144e-09|    0.011817|
|        8190|  2.3930e+02|  2.3930e+02|   -8.820330|  1.3089e-09|    0.011817|
|        8200|  2.3930e+02|  2.3930e+02|   -8.820920|  1.3069e-09|    0.011817|
+-----------------------------------------------------------------------+
|        File Writing Summary       |              Filename             |
+-----------------------------------------------------------------------+
|SU2 binary restart                 |restart_flow_aoa0.dat              |
|Paraview                           |flow_aoa0.vtu                      |
|Paraview surface                   |surface_flow_aoa0.vtu              |
+-----------------------------------------------------------------------+
+-----------------------------------------------------------------------------+
|  Inner_Iter|     Min CFL|     Max CFL|      rms[P]|  Cauchy[CD]|          CD|
+-----------------------------------------------------------------------------+
|        8210|  2.3930e+02|  2.3930e+02|   -8.821399|  1.2997e-09|    0.011817|
|        8220|  2.3930e+02|  2.3930e+02|   -8.821774|  1.2945e-09|    0.011817|
|        8230|  2.3930e+02|  2.3930e+02|   -8.822048|  1.2885e-09|    0.011817|
|        8240|  2.3930e+02|  2.3930e+02|   -8.822226|  1.2836e-09|    0.011817|
|        8250|  2.3930e+02|  2.3930e+02|   -8.822313|  1.2784e-09|    0.011817|
|        8260|  2.3930e+02|  2.3930e+02|   -8.822314|  1.2736e-09|    0.011817|
|        8270|  2.3930e+02|  2.3930e+02|   -8.822235|  1.2688e-09|    0.011817|
|        8280|  2.3930e+02|  2.3930e+02|   -8.822082|  1.2640e-09|    0.011817|
|        8290|  2.3930e+02|  2.3930e+02|   -8.821860|  1.2593e-09|    0.011817|
|        8300|  2.8716e+01|  2.8716e+01|   -8.821575|  1.2518e-09|    0.011817|
|        8310|  1.7780e+02|  1.7780e+02|   -8.821511|  1.2467e-09|    0.011817|
|        8320|  7.6450e+01|  7.6450e+01|   -8.821241|  1.2726e-09|    0.011817|
|        8330|  3.9447e+01|  3.9447e+01|   -8.820798|  1.2973e-09|    0.011817|
|        8340|  2.4424e+02|  2.4424e+02|   -8.820672|  1.2881e-09|    0.011817|
|        8350|  2.4424e+02|  2.4424e+02|   -8.820105|  1.2974e-09|    0.011817|
|        8360|  2.4424e+02|  2.4424e+02|   -8.819785|  1.2358e-09|    0.011817|
|        8370|  2.4424e+02|  2.4424e+02|   -8.819359|  1.2538e-09|    0.011817|
|        8380|  2.4424e+02|  2.4424e+02|   -8.818834|  1.2205e-09|    0.011817|
|        8390|  2.4424e+02|  2.4424e+02|   -8.818266|  1.2232e-09|    0.011817|
|        8400|  2.4424e+02|  2.4424e+02|   -8.817679|  1.2147e-09|    0.011817|
+-----------------------------------------------------------------------+
|        File Writing Summary       |              Filename             |
+-----------------------------------------------------------------------+
|SU2 binary restart                 |restart_flow_aoa0.dat              |
|Paraview                           |flow_aoa0.vtu                      |
|Paraview surface                   |surface_flow_aoa0.vtu              |
+-----------------------------------------------------------------------+
+-----------------------------------------------------------------------------+
|  Inner_Iter|     Min CFL|     Max CFL|      rms[P]|  Cauchy[CD]|          CD|
+-----------------------------------------------------------------------------+
|        8410|  2.4424e+02|  2.4424e+02|   -8.817068|  1.2153e-09|    0.011817|
|        8420|  2.4424e+02|  2.4424e+02|   -8.816428|  1.2101e-09|    0.011817|
|        8430|  2.4424e+02|  2.4424e+02|   -8.815770|  1.2057e-09|    0.011817|
|        8440|  2.4424e+02|  2.4424e+02|   -8.815107|  1.2002e-09|    0.011817|
|        8450|  2.4424e+02|  2.4424e+02|   -8.814445|  1.1956e-09|    0.011817|
|        8460|  2.4424e+02|  2.4424e+02|   -8.813790|  1.1910e-09|    0.011817|
|        8470|  2.4424e+02|  2.4424e+02|   -8.813143|  1.1866e-09|    0.011817|
|        8480|  2.4424e+02|  2.4424e+02|   -8.812509|  1.1822e-09|    0.011817|
|        8490|  2.4424e+02|  2.4424e+02|   -8.811890|  1.1779e-09|    0.011817|
|        8500|  2.4424e+02|  2.4424e+02|   -8.811293|  1.1736e-09|    0.011817|
|        8510|  2.4424e+02|  2.4424e+02|   -8.810720|  1.1694e-09|    0.011817|
|        8520|  2.4424e+02|  2.4424e+02|   -8.810175|  1.1651e-09|    0.011817|
|        8530|  2.4424e+02|  2.4424e+02|   -8.809662|  1.1608e-09|    0.011817|
|        8540|  2.4424e+02|  2.4424e+02|   -8.809185|  1.1565e-09|    0.011817|
|        8550|  2.4424e+02|  2.4424e+02|   -8.808744|  1.1548e-09|    0.011817|
|        8560|  2.4424e+02|  2.4424e+02|   -8.808345|  1.1508e-09|    0.011817|
|        8570|  1.2602e+02|  1.2602e+02|   -8.808239|  1.1321e-09|    0.011817|
|        8580|  5.4188e+01|  5.4188e+01|   -8.807966|  1.0830e-09|    0.011817|
|        8590|  2.7960e+01|  2.7960e+01|   -8.807652|  1.1016e-09|    0.011817|
|        8600|  1.7312e+02|  1.7312e+02|   -8.807532|  1.0973e-09|    0.011817|
+-----------------------------------------------------------------------+
|        File Writing Summary       |              Filename             |
+-----------------------------------------------------------------------+
|SU2 binary restart                 |restart_flow_aoa0.dat              |
|Paraview                           |flow_aoa0.vtu                      |
|Paraview surface                   |surface_flow_aoa0.vtu              |
+-----------------------------------------------------------------------+
+-----------------------------------------------------------------------------+
|  Inner_Iter|     Min CFL|     Max CFL|      rms[P]|  Cauchy[CD]|          CD|
+-----------------------------------------------------------------------------+
|        8610|  2.4929e+02|  2.4929e+02|   -8.807093|  1.1291e-09|    0.011817|
|        8620|  2.4929e+02|  2.4929e+02|   -8.807007|  1.1081e-09|    0.011817|
|        8630|  2.4929e+02|  2.4929e+02|   -8.806957|  1.1317e-09|    0.011817|
|        8640|  2.4929e+02|  2.4929e+02|   -8.806893|  1.1171e-09|    0.011817|
|        8650|  2.4929e+02|  2.4929e+02|   -8.806865|  1.1183e-09|    0.011817|
|        8660|  2.4929e+02|  2.4929e+02|   -8.806901|  1.1087e-09|    0.011817|
|        8670|  2.4929e+02|  2.4929e+02|   -8.806989|  1.1065e-09|    0.011817|
|        8680|  2.4929e+02|  2.4929e+02|   -8.807123|  1.1018e-09|    0.011817|
|        8690|  2.4929e+02|  2.4929e+02|   -8.807309|  1.0989e-09|    0.011817|
|        8700|  2.4929e+02|  2.4929e+02|   -8.807558|  1.0948e-09|    0.011817|
|        8710|  2.4929e+02|  2.4929e+02|   -8.807872|  1.0911e-09|    0.011817|
|        8720|  2.4929e+02|  2.4929e+02|   -8.808255|  1.0871e-09|    0.011817|
|        8730|  2.4929e+02|  2.4929e+02|   -8.808703|  1.0832e-09|    0.011817|
|        8740|  2.4929e+02|  2.4929e+02|   -8.809219|  1.0793e-09|    0.011817|
|        8750|  2.4929e+02|  2.4929e+02|   -8.809801|  1.0755e-09|    0.011817|
|        8760|  2.4929e+02|  2.4929e+02|   -8.810451|  1.0717e-09|    0.011817|
|        8770|  2.4929e+02|  2.4929e+02|   -8.811169|  1.0680e-09|    0.011817|
|        8780|  2.4929e+02|  2.4929e+02|   -8.811956|  1.0643e-09|    0.011817|
|        8790|  2.4929e+02|  2.4929e+02|   -8.812811|  1.0607e-09|    0.011817|
|        8800|  2.4929e+02|  2.4929e+02|   -8.813735|  1.0570e-09|    0.011817|
+-----------------------------------------------------------------------+
|        File Writing Summary       |              Filename             |
+-----------------------------------------------------------------------+
|SU2 binary restart                 |restart_flow_aoa0.dat              |
|Paraview                           |flow_aoa0.vtu                      |
|Paraview surface                   |surface_flow_aoa0.vtu              |
+-----------------------------------------------------------------------+
+-----------------------------------------------------------------------------+
|  Inner_Iter|     Min CFL|     Max CFL|      rms[P]|  Cauchy[CD]|          CD|
+-----------------------------------------------------------------------------+
|        8810|  2.4929e+02|  2.4929e+02|   -8.814726|  1.0534e-09|    0.011817|
|        8820|  2.4929e+02|  2.4929e+02|   -8.815785|  1.0545e-09|    0.011817|
|        8830|  2.4929e+02|  2.4929e+02|   -8.816910|  1.0409e-09|    0.011817|
|        8840|  2.4929e+02|  2.4929e+02|   -8.818103|  9.7278e-10|    0.011817|
|        8850|  2.4929e+02|  2.4929e+02|   -8.819363|  9.4003e-10|    0.011817|
|        8860|  2.9915e+01|  2.9915e+01|   -8.820689|  8.9416e-10|    0.011817|
|        8870|  1.8523e+02|  1.8523e+02|   -8.821255|  8.9090e-10|    0.011817|
|        8880|  7.9644e+01|  7.9644e+01|   -8.821892|  8.8083e-10|    0.011817|
|        8890|  4.1095e+01|  4.1095e+01|   -8.822478|  9.3604e-10|    0.011817|
|        8900|  2.5445e+02|  2.5445e+02|   -8.823003|  9.7632e-10|    0.011817|
|        8910|  2.5445e+02|  2.5445e+02|   -8.824392|  1.0044e-09|    0.011817|
|        8920|  2.5445e+02|  2.5445e+02|   -8.826188|  1.0034e-09|    0.011817|
|        8930|  2.5445e+02|  2.5445e+02|   -8.827983|  1.0131e-09|    0.011817|
|        8940|  2.5445e+02|  2.5445e+02|   -8.829771|  1.0015e-09|    0.011817|
|        8950|  2.5445e+02|  2.5445e+02|   -8.831613|  9.9890e-10|    0.011817|
|        8960|  2.5445e+02|  2.5445e+02|   -8.833521|  9.9326e-10|    0.011817|
|        8970|  2.5445e+02|  2.5445e+02|   -8.835478|  9.9150e-10|    0.011817|
|        8980|  2.5445e+02|  2.5445e+02|   -8.837481|  9.8846e-10|    0.011817|
|        8990|  2.5445e+02|  2.5445e+02|   -8.839538|  9.8560e-10|    0.011817|
|        9000|  2.5445e+02|  2.5445e+02|   -8.841657|  9.8214e-10|    0.011817|
+-----------------------------------------------------------------------+
|        File Writing Summary       |              Filename             |
+-----------------------------------------------------------------------+
|SU2 binary restart                 |restart_flow_aoa0.dat              |
|Paraview                           |flow_aoa0.vtu                      |
|Paraview surface                   |surface_flow_aoa0.vtu              |
+-----------------------------------------------------------------------+
+-----------------------------------------------------------------------------+
|  Inner_Iter|     Min CFL|     Max CFL|      rms[P]|  Cauchy[CD]|          CD|
+-----------------------------------------------------------------------------+
|        9010|  2.5445e+02|  2.5445e+02|   -8.843840|  9.7867e-10|    0.011817|
|        9020|  2.5445e+02|  2.5445e+02|   -8.846082|  9.7513e-10|    0.011817|
|        9030|  2.5445e+02|  2.5445e+02|   -8.848383|  9.7168e-10|    0.011817|
|        9040|  2.5445e+02|  2.5445e+02|   -8.850739|  9.6833e-10|    0.011817|
|        9050|  2.5445e+02|  2.5445e+02|   -8.853149|  9.6511e-10|    0.011817|
|        9060|  2.5445e+02|  2.5445e+02|   -8.855615|  9.6196e-10|    0.011817|
|        9070|  2.5445e+02|  2.5445e+02|   -8.858133|  9.5883e-10|    0.011817|
|        9080|  2.5445e+02|  2.5445e+02|   -8.860703|  9.5568e-10|    0.011817|
|        9090|  2.5445e+02|  2.5445e+02|   -8.863324|  9.5249e-10|    0.011817|
|        9100|  2.5445e+02|  2.5445e+02|   -8.865994|  9.4929e-10|    0.011817|
|        9110|  2.5445e+02|  2.5445e+02|   -8.868712|  9.4843e-10|    0.011817|
|        9120|  2.5445e+02|  2.5445e+02|   -8.871477|  9.4436e-10|    0.011817|
|        9130|  2.5445e+02|  2.5445e+02|   -8.874287|  9.2796e-10|    0.011817|
|        9140|  2.5445e+02|  2.5445e+02|   -8.877141|  8.7404e-10|    0.011817|
|        9150|  2.5445e+02|  2.5445e+02|   -8.880037|  8.2414e-10|    0.011817|
|        9160|  2.5445e+02|  2.5445e+02|   -8.882974|  7.9198e-10|    0.011817|
|        9170|  2.5445e+02|  2.5445e+02|   -8.885949|  7.8368e-10|    0.011817|
|        9180|  3.0534e+01|  3.0534e+01|   -8.888962|  7.6417e-10|    0.011817|
|        9190|  1.8906e+02|  1.8906e+02|   -8.890173|  7.6992e-10|    0.011817|
|        9200|  6.7742e+01|  6.7742e+01|   -8.891881|  7.8794e-10|    0.011817|
+-----------------------------------------------------------------------+
|        File Writing Summary       |              Filename             |
+-----------------------------------------------------------------------+
|SU2 binary restart                 |restart_flow_aoa0.dat              |
|Paraview                           |flow_aoa0.vtu                      |
|Paraview surface                   |surface_flow_aoa0.vtu              |
+-----------------------------------------------------------------------+
+-----------------------------------------------------------------------------+
|  Inner_Iter|     Min CFL|     Max CFL|      rms[P]|  Cauchy[CD]|          CD|
+-----------------------------------------------------------------------------+
|        9210|  3.4954e+01|  3.4954e+01|   -8.893225|  8.3894e-10|    0.011817|
|        9220|  2.1642e+02|  2.1642e+02|   -8.894329|  8.7262e-10|    0.011817|
|        9230|  2.5971e+02|  2.5971e+02|   -8.897151|  9.1536e-10|    0.011817|
|        9240|  2.5971e+02|  2.5971e+02|   -8.900627|  9.0424e-10|    0.011817|
|        9250|  2.5971e+02|  2.5971e+02|   -8.904034|  9.2030e-10|    0.011817|
|        9260|  2.5971e+02|  2.5971e+02|   -8.907364|  9.0755e-10|    0.011817|
|        9270|  2.5971e+02|  2.5971e+02|   -8.910707|  9.0723e-10|    0.011817|
|        9280|  2.5971e+02|  2.5971e+02|   -8.914075|  9.0139e-10|    0.011817|
|        9290|  2.5971e+02|  2.5971e+02|   -8.917444|  9.0019e-10|    0.011817|
|        9300|  2.5971e+02|  2.5971e+02|   -8.920816|  8.9737e-10|    0.011817|
|        9310|  2.5971e+02|  2.5971e+02|   -8.924205|  8.9488e-10|    0.011817|
|        9320|  2.5971e+02|  2.5971e+02|   -8.927622|  8.9183e-10|    0.011817|
|        9330|  2.5971e+02|  2.5971e+02|   -8.931066|  8.8886e-10|    0.011817|
|        9340|  2.5971e+02|  2.5971e+02|   -8.934530|  8.8591e-10|    0.011817|
|        9350|  2.5971e+02|  2.5971e+02|   -8.938011|  8.8304e-10|    0.011817|
|        9360|  2.5971e+02|  2.5971e+02|   -8.941508|  8.8027e-10|    0.011817|
|        9370|  2.5971e+02|  2.5971e+02|   -8.945020|  8.7756e-10|    0.011817|
|        9380|  2.5971e+02|  2.5971e+02|   -8.948546|  8.7489e-10|    0.011817|
|        9390|  2.5971e+02|  2.5971e+02|   -8.952086|  8.7222e-10|    0.011817|
|        9400|  2.5971e+02|  2.5971e+02|   -8.955638|  8.6954e-10|    0.011817|
+-----------------------------------------------------------------------+
|        File Writing Summary       |              Filename             |
+-----------------------------------------------------------------------+
|SU2 binary restart                 |restart_flow_aoa0.dat              |
|Paraview                           |flow_aoa0.vtu                      |
|Paraview surface                   |surface_flow_aoa0.vtu              |
+-----------------------------------------------------------------------+
+-----------------------------------------------------------------------------+
|  Inner_Iter|     Min CFL|     Max CFL|      rms[P]|  Cauchy[CD]|          CD|
+-----------------------------------------------------------------------------+
|        9410|  2.5971e+02|  2.5971e+02|   -8.959199|  8.6685e-10|    0.011817|
|        9420|  2.5971e+02|  2.5971e+02|   -8.962769|  8.6417e-10|    0.011817|
|        9430|  2.5971e+02|  2.5971e+02|   -8.966347|  8.6370e-10|    0.011817|
|        9440|  2.5971e+02|  2.5971e+02|   -8.969931|  8.5868e-10|    0.011817|
|        9450|  2.5971e+02|  2.5971e+02|   -8.973522|  8.3345e-10|    0.011817|
|        9460|  2.5971e+02|  2.5971e+02|   -8.977119|  7.7813e-10|    0.011817|
|        9470|  2.5971e+02|  2.5971e+02|   -8.980720|  7.3648e-10|    0.011817|
|        9480|  2.5971e+02|  2.5971e+02|   -8.984327|  6.8702e-10|    0.011817|
|        9490|  2.5971e+02|  2.5971e+02|   -8.987938|  6.9131e-10|    0.011817|
|        9500|  2.5971e+02|  2.5971e+02|   -8.991553|  6.6899e-10|    0.011817|
|        9510|  2.5971e+02|  2.5971e+02|   -8.995171|  6.7549e-10|    0.011817|
|        9520|  5.3853e+01|  5.3853e+01|   -8.998374|  6.6122e-10|    0.011817|
|        9530|  2.7787e+02|  2.7787e+02|   -8.999847|  6.8334e-10|    0.011817|
|        9532|  2.7787e+01|  2.7787e+01|   -9.000315|  6.9058e-10|    0.011817|

----------------------------- Solver Exit -------------------------------
All convergence criteria satisfied.
+-----------------------------------------------------------------------+
|      Convergence Field     |     Value    |   Criterion  |  Converged |
+-----------------------------------------------------------------------+
|                      rms[P]|      -9.00032|          < -9|         Yes|
|                  Cauchy[CD]|   6.90583e-10|       < 1e-06|         Yes|
+-----------------------------------------------------------------------+
-------------------------------------------------------------------------
+-----------------------------------------------------------------------+
|        File Writing Summary       |              Filename             |
+-----------------------------------------------------------------------+
|SU2 binary restart                 |restart_flow_aoa0.dat              |
|Paraview                           |flow_aoa0.vtu                      |
|Paraview surface                   |surface_flow_aoa0.vtu              |
+-----------------------------------------------------------------------+

------------------------- Solver Postprocessing -------------------------
Deleted CNumerics container.
Deleted CIntegration container.
Deleted CSolver container.
Deleted CIteration container.
Deleted CInterface container.
Deleted CGeometry container.
Deleted CFreeFormDefBox class.
Deleted CSurfaceMovement class.
Deleted CVolumetricMovement class.
Deleted CConfig container.
Deleted nInst container.
Deleted COutput class.
-------------------------------------------------------------------------

------------------------- Exit Success (SU2_CFD) ------------------------

