
-------------------------------------------------------------------------
|    ___ _   _ ___                                                      |
|   / __| | | |_  )   Release 7.4.0 "Blackbird"                         |
|   \__ \ |_| |/ /                                                      |
|   |___/\___//___|   Suite (Computational Fluid Dynamics Code)         |
|                                                                       |
-------------------------------------------------------------------------
| SU2 Project Website: https://su2code.github.io                        |
|                                                                       |
| The SU2 Project is maintained by the SU2 Foundation                   |
| (http://su2foundation.org)                                            |
-------------------------------------------------------------------------
| Copyright 2012-2022, SU2 Contributors                                 |
|                                                                       |
| SU2 is free software; you can redistribute it and/or                  |
| modify it under the terms of the GNU Lesser General Public            |
| License as published by the Free Software Foundation; either          |
| version 2.1 of the License, or (at your option) any later version.    |
|                                                                       |
| SU2 is distributed in the hope that it will be useful,                |
| but WITHOUT ANY WARRANTY; without even the implied warranty of        |
| MERCHANTABILITY or FITNESS FOR A PARTICULAR PURPOSE. See the GNU      |
| Lesser General Public License for more details.                       |
|                                                                       |
| You should have received a copy of the GNU Lesser General Public      |
| License along with SU2. If not, see <http://www.gnu.org/licenses/>.   |
-------------------------------------------------------------------------

Parsing config file for zone 0

----------------- Physical Case Definition ( Zone 0 ) -------------------
Incompressible RANS equations.
Turbulence model: Spalart-Allmaras-noft2
Hybrid RANS/LES: No Hybrid RANS/LES
Reading and writing binary SU2 native restart files.
Read flow solution from: ../../../O1/caseG4/cfdG4/restart_flow_G4.dat.
Non-Dimensional simulation using intialization values.
The reference area is 1 m^2.
The semi-span will be computed using the max y(3D) value.
The reference length is 1.00898 m.
Reference origin for moment evaluation is (-0.756, 0, 0).
Surface(s) where the force coefficients are evaluated: AIRFOIL.

Surface(s) plotted in the output file: AIRFOIL.
Input mesh file name: ../meshG4/meshG4.su2

--------------- Space Numerical Integration ( Zone 0 ) ------------------
Flux difference splitting (FDS) upwind scheme for the flow inviscid terms.
Second order integration in space, with slope limiter.
Venkatakrishnan slope-limiting method, with constant: 0.081.
The reference element size is: 1. 
Average of gradients with correction (viscous flow terms).
Average of gradients with correction (viscous turbulence terms).
Gradient for upwind reconstruction: unweighted Least-Squares.
Gradient for viscous and source terms: Green-Gauss.

--------------- Time Numerical Integration  ( Zone 0 ) ------------------
Local time stepping (steady state simulation).
Euler implicit method for the flow equations.
FGMRES is used for solving the linear system.
Using a ILU(0) preconditioning.
Convergence criteria of the linear solver: 1e-06.
Max number of linear iterations: 10.
CFL adaptation. Factor down: 0.1, factor up: 1.2,
                lower limit: 1, upper limit: 1000,
                acceptable linear residual: 0.001.
Courant-Friedrichs-Lewy number:        2
Euler implicit time integration for the turbulence model.

------------------ Convergence Criteria  ( Zone 0 ) ---------------------
Maximum number of solver subiterations: 20000.
Begin convergence monitoring at iteration 10.
Residual minimum value: 1e-9.
Cauchy series min. value: 1e-06.
Number of Cauchy elements: 250.
Begin windowed time average at iteration 0.

-------------------- Output Information ( Zone 0 ) ----------------------
File writing frequency: 
+------------------------------------+
|                     File| Frequency|
+------------------------------------+
|                  RESTART|       200|
|                 PARAVIEW|       200|
|         SURFACE_PARAVIEW|       200|
+------------------------------------+
Writing the convergence history file every 1 inner iterations.
Writing the screen convergence history every 10 inner iterations.
The tabular file format is CSV (.csv).
Convergence history file name: history_G4.
Forces breakdown file name: forces_breakdown.dat.
Surface file name: surface_flow_G4.
Volume file name: flow_G4.
Restart file name: restart_flow_G4.dat.

------------- Config File Boundary Information ( Zone 0 ) ---------------
+-----------------------------------------------------------------------+
|                        Marker Type|                        Marker Name|
+-----------------------------------------------------------------------+
|                          Far-field|                           FARFIELD|
+-----------------------------------------------------------------------+
|                     Heat flux wall|                            AIRFOIL|
+-----------------------------------------------------------------------+

-------------------- Output Preprocessing ( Zone 0 ) --------------------

WARNING: SURFACE_PRESSURE_DROP can only be computed for at least 2 surfaces (outlet, inlet, ...)

Screen output fields: INNER_ITER, MIN_CFL, MAX_CFL, RMS_PRESSURE, CAUCHY_DRAG, DRAG
History output group(s): INNER_ITER, MIN_CFL, MAX_CFL, RMS_RES, LIFT, DRAG, MOMENT_Z, CAUCHY
Convergence field(s): RMS_PRESSURE, DRAG
Warning: No (valid) fields chosen for time convergence monitoring. Time convergence monitoring inactive.
Volume output fields: COORDINATES, SOLUTION, PRIMITIVE, RESIDUAL, MESH_QUALITY

------------------- Geometry Preprocessing ( Zone 0 ) -------------------
Two dimensional problem.
136940 grid points before partitioning.
136104 volume elements before partitioning.
2 surface markers.
498 boundary elements in index 0 (Marker = AIRFOIL).
1174 boundary elements in index 1 (Marker = FARFIELD).
Executing the partitioning functions.
Building the graph adjacency structure.
Calling ParMETIS... graph partitioning complete (2457 edge cuts).
Distributing ParMETIS coloring.
Rebalancing vertices.
Rebalancing volume element connectivity.
Rebalancing markers and surface elements.
141872 vertices including ghost points. 
138558 interior elements including halo cells. 
138558 quadrilaterals.
Establishing MPI communication patterns.
Setting point connectivity.
Renumbering points (Reverse Cuthill McKee Ordering).
Recomputing point connectivity.
Setting element connectivity.
Checking the numerical grid orientation.
All volume elements are correctly orientend.
There has been a re-orientation of 844 LINE surface elements.
Identifying edges and vertices.
Setting the control volume structure.
Area of the computational grid: 3247.61.
Searching for the closest normal neighbors to the surfaces.
Storing a mapping from global to local point index.
Compute the surface curvature.
Max K: 4099.33. Mean K: 4.4793. Standard deviation K: 105.177.
Checking for periodicity.
Computing mesh quality statistics for the dual control volumes.
+--------------------------------------------------------------+
|           Mesh Quality Metric|        Minimum|        Maximum|
+--------------------------------------------------------------+
|    Orthogonality Angle (deg.)|        73.9526|             90|
|     CV Face Area Aspect Ratio|        1.00011|        87340.5|
|           CV Sub-Volume Ratio|              1|        16.7587|
+--------------------------------------------------------------+
Finding max control volume width.
Communicating number of neighbors.
Wetted area = 2.05956 m.
Area projection in the x-plane = 0.121113 m, y-plane = 1.00873 m.
Max. coordinate in the x-direction = 1.00898 m, y-direction = 0.0759836 m.
Min. coordinate in the x-direction = 3.20676e-06 m, y-direction = -0.0451322 m.
Computing wall distances.

-------------------- Solver Preprocessing ( Zone 0 ) --------------------
 Warning: There is no restart file (flow.meta).
 Computation will continue without updating metadata parameters.
Incompressible flow: rho_ref, vel_ref, and temp_ref
are based on the initial values, p_ref = rho_ref*vel_ref^2.
Force coefficients computed using initial values.
The reference area for force coeffs. is 1 m^2.
The reference length for force coeffs. is 1.00898 m.
The pressure is decomposed into thermodynamic and dynamic components.
The initial value of the dynamic pressure is 0.
Mach number: 0.0276747, computed using the Bulk modulus.
For external flows, the initial state is imposed at the far-field.
Angle of attack (deg): 14, computed using the initial velocity.
Side slip angle (deg): 0, computed using the initial velocity.
Reynolds number per meter: 594999, computed using initial values.
Reynolds number is a byproduct of inputs only (not used internally).
SI units only. The grid should be dimensional (meters).
No energy equation.

-- Models:
+------------------------------------------------------------------------------+
|          Viscosity Model|        Conductivity Model|              Fluid Model|
+------------------------------------------------------------------------------+
|       CONSTANT_VISCOSITY|          CONSTANT_PRANDTL|         CONSTANT_DENSITY|
+------------------------------------------------------------------------------+
-- Fluid properties:
+------------------------------------------------------------------------------+
|                  Name|    Dim. value|    Ref. value|      Unit|Non-dim. value|
+------------------------------------------------------------------------------+
|             Viscosity|      1.92e-05|        11.424|   N.s/m^2|   1.68067e-06|
+------------------------------------------------------------------------------+
|        Prandtl (Lam.)|             -|             -|         -|          0.72|
|       Prandtl (Turb.)|             -|             -|         -|           0.9|
+------------------------------------------------------------------------------+
|          Bulk Modulus|        142000|             1|        Pa|        142000|
+------------------------------------------------------------------------------+
-- Initial and free-stream conditions:
+------------------------------------------------------------------------------+
|                  Name|    Dim. value|    Ref. value|      Unit|Non-dim. value|
+------------------------------------------------------------------------------+
|      Dynamic Pressure|             0|       108.756|        Pa|             0|
|        Total Pressure|       54.3781|       108.756|        Pa|           0.5|
|               Density|           1.2|           1.2|    kg/m^3|             1|
|            Velocity-X|        9.2372|       9.51999|       m/s|      0.970296|
|            Velocity-Y|        2.3031|       9.51999|       m/s|      0.241923|
|    Velocity Magnitude|       9.51999|       9.51999|       m/s|             1|
+------------------------------------------------------------------------------+
|             Viscosity|      1.92e-05|        11.424|   N.s/m^2|   1.68067e-06|
|          Conductivity|             -|       3.59312|   W/m^2.K|             -|
|     Turb. Kin. Energy|       1.35945|       90.6301|   m^2/s^2|         0.015|
|     Spec. Dissipation|       8496.58|       9.51999|       1/s|       892.499|
+------------------------------------------------------------------------------+
|           Mach Number|             -|             -|         -|     0.0276747|
|       Reynolds Number|             -|             -|         -|        594999|
+------------------------------------------------------------------------------+
Initialize Jacobian structure (Navier-Stokes). MG level: 0.
Initialize Jacobian structure (SA model).

------------------- Numerics Preprocessing ( Zone 0 ) -------------------

----------------- Integration Preprocessing ( Zone 0 ) ------------------

------------------- Iteration Preprocessing ( Zone 0 ) ------------------
Euler/Navier-Stokes/RANS fluid iteration.

------------------------------ Begin Solver -----------------------------

Simulation Run using the Single-zone Driver
+-----------------------------------------------------------------------------+
|  Inner_Iter|     Min CFL|     Max CFL|      rms[P]|  Cauchy[CD]|          CD|
+-----------------------------------------------------------------------------+
|           0|  2.4000e+00|  2.4000e+00|   -5.978602|  1.0000e+00|    0.128943|
|          10|  1.4860e+01|  1.4860e+01|   -6.011477|  1.7631e-04|    0.123410|
|          20|  7.6675e+00|  7.6675e+00|   -6.292099|  2.6296e-03|    0.060342|
|          30|  4.7475e+01|  4.7475e+01|   -6.298864|  2.9313e-03|    0.056919|
|          40|  2.4496e+01|  2.4496e+01|   -6.325789|  3.3129e-03|    0.066459|
|          50|  1.2639e+01|  1.2639e+01|   -6.399662|  3.5989e-03|    0.073610|
|          60|  6.5217e+00|  6.5217e+00|   -6.378911|  3.6433e-03|    0.074166|
|          70|  4.0381e+01|  4.0381e+01|   -6.483291|  3.6660e-03|    0.073598|
|          80|  2.0836e+01|  2.0836e+01|   -6.584821|  3.7244e-03|    0.075058|
|          90|  1.0751e+01|  1.0751e+01|   -6.597560|  3.7846e-03|    0.076299|
|         100|  5.5471e+00|  5.5471e+00|   -6.634660|  3.9306e-03|    0.072650|
|         110|  3.4346e+01|  3.4346e+01|   -6.684706|  4.0494e-03|    0.069680|
|         120|  1.7722e+01|  1.7722e+01|   -6.695179|  4.1811e-03|    0.066389|
|         130|  4.4098e+01|  4.4098e+01|   -6.700740|  4.2604e-03|    0.065789|
|         140|  4.4098e+01|  4.4098e+01|   -6.730073|  4.4677e-03|    0.070971|
|         150|  1.0973e+01|  1.0973e+01|   -6.791008|  4.5323e-03|    0.072585|
|         160|  5.6618e+00|  5.6618e+00|   -6.750781|  4.5710e-03|    0.071617|
|         170|  3.5056e+01|  3.5056e+01|   -6.732812|  4.6219e-03|    0.070344|
|         180|  1.8088e+01|  1.8088e+01|   -6.757312|  4.6929e-03|    0.068569|
|         190|  9.3332e+00|  9.3332e+00|   -6.816015|  4.7514e-03|    0.067107|
|         200|  4.8157e+01|  4.8157e+01|   -6.814240|  4.7647e-03|    0.067032|
+-----------------------------------------------------------------------+
|        File Writing Summary       |              Filename             |
+-----------------------------------------------------------------------+
|SU2 binary restart                 |restart_flow_G4.dat                |
|Paraview                           |flow_G4.vtu                        |
|Paraview surface                   |surface_flow_G4.vtu                |
+-----------------------------------------------------------------------+
+-----------------------------------------------------------------------------+
|  Inner_Iter|     Min CFL|     Max CFL|      rms[P]|  Cauchy[CD]|          CD|
+-----------------------------------------------------------------------------+
|         210|  4.8157e+01|  4.8157e+01|   -6.838377|  4.8119e-03|    0.068213|
|         220|  9.9859e+00|  9.9859e+00|   -6.914192|  4.8207e-03|    0.068129|
|         230|  5.1525e+00|  5.1525e+00|   -6.964215|  4.8452e-03|    0.067517|
|         240|  3.1903e+01|  3.1903e+01|   -7.028212|  4.8641e-03|    0.067042|
|         250|  4.5940e+01|  4.5940e+01|   -7.012701|  4.9494e-03|    0.064910|
|         260|  4.5940e+01|  4.5940e+01|   -7.072928|  4.8236e-03|    0.063649|
|         270|  2.3704e+01|  2.3704e+01|   -7.208587|  2.3730e-03|    0.063695|
|         280|  4.9153e+01|  4.9153e+01|   -7.188358|  2.0859e-03|    0.064058|
|         290|  5.8983e+00|  5.8983e+00|   -7.268745|  1.7415e-03|    0.063127|
|         300|  3.6521e+01|  3.6521e+01|   -7.415949|  1.4797e-03|    0.062520|
|         310|  1.8844e+01|  1.8844e+01|   -7.450139|  1.4714e-03|    0.061621|
|         320|  9.7231e+00|  9.7231e+00|   -7.274042|  1.4925e-03|    0.060525|
|         330|  5.0169e+01|  5.0169e+01|   -7.328396|  1.4634e-03|    0.059792|
|         340|  1.4980e+01|  1.4980e+01|   -7.536041|  1.4186e-03|    0.059406|
|         350|  5.3677e+01|  5.3677e+01|   -7.411007|  1.2771e-03|    0.059296|
|         360|  5.3677e+01|  5.3677e+01|   -7.377750|  1.1755e-03|    0.058865|
|         370|  5.3677e+01|  5.3677e+01|   -7.329137|  1.0810e-03|    0.057936|
|         380|  5.3677e+01|  5.3677e+01|   -7.310837|  1.0403e-03|    0.056969|
|         390|  5.3677e+01|  5.3677e+01|   -7.300598|  8.4903e-04|    0.056568|
|         400|  5.3677e+01|  5.3677e+01|   -7.353884|  7.8774e-04|    0.056487|
+-----------------------------------------------------------------------+
|        File Writing Summary       |              Filename             |
+-----------------------------------------------------------------------+
|SU2 binary restart                 |restart_flow_G4.dat                |
|Paraview                           |flow_G4.vtu                        |
|Paraview surface                   |surface_flow_G4.vtu                |
+-----------------------------------------------------------------------+
+-----------------------------------------------------------------------------+
|  Inner_Iter|     Min CFL|     Max CFL|      rms[P]|  Cauchy[CD]|          CD|
+-----------------------------------------------------------------------------+
|         410|  9.2755e+00|  9.2755e+00|   -7.313057|  7.5664e-04|    0.056296|
|         420|  5.7431e+01|  5.7431e+01|   -7.403669|  7.1111e-04|    0.056161|
|         430|  5.7431e+01|  5.7431e+01|   -7.336826|  6.5365e-04|    0.055822|
|         440|  1.1909e+01|  1.1909e+01|   -7.287439|  6.0107e-04|    0.055675|
|         450|  6.1447e+01|  6.1447e+01|   -7.305862|  5.8850e-04|    0.055657|
|         460|  6.1447e+01|  6.1447e+01|   -7.262444|  5.4196e-04|    0.055672|
|         470|  8.8484e+00|  8.8484e+00|   -7.247318|  5.3328e-04|    0.055674|
|         480|  5.4787e+01|  5.4787e+01|   -7.325543|  5.0933e-04|    0.055687|
|         490|  2.8269e+01|  2.8269e+01|   -7.361178|  4.9076e-04|    0.055697|
|         500|  1.4586e+01|  1.4586e+01|   -7.383395|  4.0661e-04|    0.055726|
|         510|  5.2265e+01|  5.2265e+01|   -7.368224|  3.5830e-04|    0.055779|
|         520|  5.2265e+01|  5.2265e+01|   -7.382330|  3.6030e-04|    0.055898|
|         530|  5.2265e+01|  5.2265e+01|   -7.411468|  3.5160e-04|    0.056044|
|         540|  2.2473e+01|  2.2473e+01|   -7.436993|  3.1682e-04|    0.056105|
|         550|  1.1596e+01|  1.1596e+01|   -7.442614|  2.9579e-04|    0.056186|
|         560|  4.9859e+01|  4.9859e+01|   -7.436082|  2.6386e-04|    0.056288|
|         570|  1.7865e+01|  1.7865e+01|   -7.437479|  2.2375e-04|    0.056381|
|         580|  9.2181e+00|  9.2181e+00|   -7.411988|  1.9795e-04|    0.056469|
|         590|  5.7076e+01|  5.7076e+01|   -7.413958|  1.8589e-04|    0.056553|
|         600|  2.9450e+01|  2.9450e+01|   -7.415889|  1.8408e-04|    0.056618|
+-----------------------------------------------------------------------+
|        File Writing Summary       |              Filename             |
+-----------------------------------------------------------------------+
|SU2 binary restart                 |restart_flow_G4.dat                |
|Paraview                           |flow_G4.vtu                        |
|Paraview surface                   |surface_flow_G4.vtu                |
+-----------------------------------------------------------------------+
+-----------------------------------------------------------------------------+
|  Inner_Iter|     Min CFL|     Max CFL|      rms[P]|  Cauchy[CD]|          CD|
+-----------------------------------------------------------------------------+
|         610|  1.0552e+01|  1.0552e+01|   -7.399447|  1.7203e-04|    0.056748|
|         620|  5.4448e+00|  5.4448e+00|   -7.415289|  1.3934e-04|    0.056860|
|         630|  3.3713e+01|  3.3713e+01|   -7.428785|  1.0298e-04|    0.056917|
|         640|  1.7395e+01|  1.7395e+01|   -7.432902|  9.0868e-05|    0.057016|
|         650|  8.9755e+00|  8.9755e+00|   -7.400868|  9.2709e-05|    0.057143|
|         660|  5.5574e+01|  5.5574e+01|   -7.418413|  8.8967e-05|    0.057240|
|         670|  5.5574e+01|  5.5574e+01|   -7.394230|  9.2175e-05|    0.057455|
|         680|  5.5574e+01|  5.5574e+01|   -7.397924|  8.7038e-05|    0.057666|
|         690|  2.3896e+01|  2.3896e+01|   -7.423338|  8.5241e-05|    0.057768|
|         700|  5.9460e+01|  5.9460e+01|   -7.420511|  9.1552e-05|    0.057944|
|         710|  5.9460e+01|  5.9460e+01|   -7.445847|  9.8511e-05|    0.058135|
|         720|  5.9460e+01|  5.9460e+01|   -7.493451|  1.0481e-04|    0.058294|
|         730|  5.9460e+01|  5.9460e+01|   -7.551778|  1.1003e-04|    0.058438|
|         740|  5.9460e+01|  5.9460e+01|   -7.605105|  1.1433e-04|    0.058556|
|         750|  5.9460e+01|  5.9460e+01|   -7.644992|  1.1655e-04|    0.058639|
|         760|  5.9460e+01|  5.9460e+01|   -7.666595|  1.1671e-04|    0.058697|
|         770|  5.9460e+01|  5.9460e+01|   -7.676436|  1.1333e-04|    0.058731|
|         780|  5.9460e+01|  5.9460e+01|   -7.679390|  1.0787e-04|    0.058739|
|         790|  5.9460e+01|  5.9460e+01|   -7.674875|  1.0605e-04|    0.058723|
|         800|  5.9460e+01|  5.9460e+01|   -7.664978|  1.0431e-04|    0.058686|
+-----------------------------------------------------------------------+
|        File Writing Summary       |              Filename             |
+-----------------------------------------------------------------------+
|SU2 binary restart                 |restart_flow_G4.dat                |
|Paraview                           |flow_G4.vtu                        |
|Paraview surface                   |surface_flow_G4.vtu                |
+-----------------------------------------------------------------------+
+-----------------------------------------------------------------------------+
|  Inner_Iter|     Min CFL|     Max CFL|      rms[P]|  Cauchy[CD]|          CD|
+-----------------------------------------------------------------------------+
|         810|  5.9460e+01|  5.9460e+01|   -7.651699|  1.0254e-04|    0.058629|
|         820|  5.9460e+01|  5.9460e+01|   -7.635253|  1.0178e-04|    0.058554|
|         830|  5.9460e+01|  5.9460e+01|   -7.617539|  1.0186e-04|    0.058464|
|         840|  5.9460e+01|  5.9460e+01|   -7.601948|  1.0263e-04|    0.058361|
|         850|  5.9460e+01|  5.9460e+01|   -7.591514|  1.0469e-04|    0.058244|
|         860|  5.9460e+01|  5.9460e+01|   -7.588213|  1.0465e-04|    0.058116|
|         870|  5.9460e+01|  5.9460e+01|   -7.594462|  1.0573e-04|    0.057977|
|         880|  5.9460e+01|  5.9460e+01|   -7.612111|  1.0938e-04|    0.057828|
|         890|  5.9460e+01|  5.9460e+01|   -7.642424|  1.1173e-04|    0.057671|
|         900|  1.2330e+01|  1.2330e+01|   -7.668474|  1.1092e-04|    0.057564|
|         910|  6.3619e+00|  6.3619e+00|   -7.710948|  1.1073e-04|    0.057471|
|         920|  3.9391e+01|  3.9391e+01|   -7.740597|  1.0407e-04|    0.057423|
|         930|  5.6723e+01|  5.6723e+01|   -7.771126|  1.0172e-04|    0.057271|
|         940|  9.8017e+00|  9.8017e+00|   -7.792560|  1.0268e-04|    0.057144|
|         950|  6.0690e+01|  6.0690e+01|   -7.859908|  9.8964e-05|    0.057062|
|         960|  3.1315e+01|  3.1315e+01|   -7.892022|  9.3629e-05|    0.057004|
|         970|  5.4112e+01|  5.4112e+01|   -7.910226|  9.3230e-05|    0.056855|
|         980|  5.4112e+01|  5.4112e+01|   -7.942784|  9.4366e-05|    0.056683|
|         990|  5.4112e+01|  5.4112e+01|   -7.959088|  9.6573e-05|    0.056510|
|        1000|  5.4112e+01|  5.4112e+01|   -7.960154|  1.0027e-04|    0.056334|
+-----------------------------------------------------------------------+
|        File Writing Summary       |              Filename             |
+-----------------------------------------------------------------------+
|SU2 binary restart                 |restart_flow_G4.dat                |
|Paraview                           |flow_G4.vtu                        |
|Paraview surface                   |surface_flow_G4.vtu                |
+-----------------------------------------------------------------------+
+-----------------------------------------------------------------------------+
|  Inner_Iter|     Min CFL|     Max CFL|      rms[P]|  Cauchy[CD]|          CD|
+-----------------------------------------------------------------------------+
|        1010|  5.4112e+01|  5.4112e+01|   -7.953334|  1.0511e-04|    0.056155|
|        1020|  5.4112e+01|  5.4112e+01|   -7.944671|  1.1085e-04|    0.055978|
|        1030|  5.4112e+01|  5.4112e+01|   -7.935308|  1.1768e-04|    0.055798|
|        1040|  5.4112e+01|  5.4112e+01|   -7.928108|  1.2430e-04|    0.055616|
|        1050|  5.4112e+01|  5.4112e+01|   -7.923851|  1.3005e-04|    0.055434|
|        1060|  5.4112e+01|  5.4112e+01|   -7.922095|  1.3500e-04|    0.055253|
|        1070|  5.4112e+01|  5.4112e+01|   -7.924531|  1.3924e-04|    0.055073|
|        1080|  5.4112e+01|  5.4112e+01|   -7.932237|  1.4285e-04|    0.054893|
|        1090|  5.4112e+01|  5.4112e+01|   -7.946123|  1.4585e-04|    0.054715|
|        1100|  7.7921e+00|  7.7921e+00|   -7.945347|  1.4698e-04|    0.054570|
|        1110|  4.8246e+01|  4.8246e+01|   -8.005948|  1.4458e-04|    0.054501|
|        1120|  2.4894e+01|  2.4894e+01|   -8.024903|  1.4158e-04|    0.054437|
|        1130|  5.1620e+01|  5.1620e+01|   -8.024214|  1.4119e-04|    0.054298|
|        1140|  5.1620e+01|  5.1620e+01|   -8.054464|  1.4143e-04|    0.054135|
|        1150|  5.1620e+01|  5.1620e+01|   -8.087732|  1.4363e-04|    0.053973|
|        1160|  6.1945e+00|  6.1945e+00|   -8.123122|  1.4575e-04|    0.053827|
|        1170|  3.8354e+01|  3.8354e+01|   -8.170658|  1.4588e-04|    0.053776|
|        1180|  1.9790e+01|  1.9790e+01|   -8.187871|  1.4237e-04|    0.053712|
|        1190|  4.9244e+01|  4.9244e+01|   -8.169945|  1.4190e-04|    0.053597|
|        1200|  4.9244e+01|  4.9244e+01|   -8.181297|  1.4441e-04|    0.053452|
+-----------------------------------------------------------------------+
|        File Writing Summary       |              Filename             |
+-----------------------------------------------------------------------+
|SU2 binary restart                 |restart_flow_G4.dat                |
|Paraview                           |flow_G4.vtu                        |
|Paraview surface                   |surface_flow_G4.vtu                |
+-----------------------------------------------------------------------+
+-----------------------------------------------------------------------------+
|  Inner_Iter|     Min CFL|     Max CFL|      rms[P]|  Cauchy[CD]|          CD|
+-----------------------------------------------------------------------------+
|        1210|  4.9244e+01|  4.9244e+01|   -8.183045|  1.4798e-04|    0.053305|
|        1220|  4.9244e+01|  4.9244e+01|   -8.182007|  1.4779e-04|    0.053160|
|        1230|  4.9244e+01|  4.9244e+01|   -8.181323|  1.4656e-04|    0.053019|
|        1240|  4.9244e+01|  4.9244e+01|   -8.182250|  1.4516e-04|    0.052881|
|        1250|  4.9244e+01|  4.9244e+01|   -8.185088|  1.4359e-04|    0.052744|
|        1260|  4.9244e+01|  4.9244e+01|   -8.190495|  1.4193e-04|    0.052607|
|        1270|  4.9244e+01|  4.9244e+01|   -8.197599|  1.4025e-04|    0.052471|
|        1280|  4.9244e+01|  4.9244e+01|   -8.205611|  1.3839e-04|    0.052338|
|        1290|  4.9244e+01|  4.9244e+01|   -8.213713|  1.3639e-04|    0.052206|
|        1300|  4.9244e+01|  4.9244e+01|   -8.221654|  1.3437e-04|    0.052075|
|        1310|  4.9244e+01|  4.9244e+01|   -8.229184|  1.3230e-04|    0.051946|
|        1320|  1.4704e+01|  1.4704e+01|   -8.275143|  1.2764e-04|    0.051882|
|        1330|  7.5870e+00|  7.5870e+00|   -8.221711|  1.2314e-04|    0.051814|
|        1340|  4.6977e+01|  4.6977e+01|   -8.269272|  1.1805e-04|    0.051764|
|        1350|  4.6977e+01|  4.6977e+01|   -8.256620|  1.1692e-04|    0.051647|
|        1360|  4.6977e+01|  4.6977e+01|   -8.258113|  1.1893e-04|    0.051528|
|        1370|  4.6977e+01|  4.6977e+01|   -8.261505|  1.2107e-04|    0.051410|
|        1380|  4.6977e+01|  4.6977e+01|   -8.263967|  1.2011e-04|    0.051296|
|        1390|  4.6977e+01|  4.6977e+01|   -8.265892|  1.1810e-04|    0.051183|
|        1400|  4.6977e+01|  4.6977e+01|   -8.268559|  1.1605e-04|    0.051072|
+-----------------------------------------------------------------------+
|        File Writing Summary       |              Filename             |
+-----------------------------------------------------------------------+
|SU2 binary restart                 |restart_flow_G4.dat                |
|Paraview                           |flow_G4.vtu                        |
|Paraview surface                   |surface_flow_G4.vtu                |
+-----------------------------------------------------------------------+
+-----------------------------------------------------------------------------+
|  Inner_Iter|     Min CFL|     Max CFL|      rms[P]|  Cauchy[CD]|          CD|
+-----------------------------------------------------------------------------+
|        1410|  4.6977e+01|  4.6977e+01|   -8.270995|  1.1464e-04|    0.050961|
|        1420|  1.1689e+01|  1.1689e+01|   -8.292137|  1.1510e-04|    0.050898|
|        1430|  6.0314e+00|  6.0314e+00|   -8.280223|  1.1493e-04|    0.050839|
|        1440|  3.7345e+01|  3.7345e+01|   -8.304441|  1.1178e-04|    0.050802|
|        1450|  4.4814e+01|  4.4814e+01|   -8.285342|  1.0990e-04|    0.050704|
|        1460|  4.4814e+01|  4.4814e+01|   -8.289504|  1.0809e-04|    0.050603|
|        1470|  4.4814e+01|  4.4814e+01|   -8.293990|  1.0638e-04|    0.050501|
|        1480|  4.4814e+01|  4.4814e+01|   -8.299961|  1.0475e-04|    0.050400|
|        1490|  4.4814e+01|  4.4814e+01|   -8.306694|  1.0321e-04|    0.050301|
|        1500|  5.3777e+00|  5.3777e+00|   -8.312027|  1.0132e-04|    0.050211|
|        1510|  3.3297e+01|  3.3297e+01|   -8.342067|  9.7119e-05|    0.050179|
|        1520|  1.7181e+01|  1.7181e+01|   -8.344321|  9.3309e-05|    0.050139|
|        1530|  4.2751e+01|  4.2751e+01|   -8.323879|  9.0907e-05|    0.050065|
|        1540|  4.2751e+01|  4.2751e+01|   -8.325644|  8.9348e-05|    0.049972|
|        1550|  4.2751e+01|  4.2751e+01|   -8.322550|  8.7892e-05|    0.049878|
|        1560|  4.2751e+01|  4.2751e+01|   -8.319936|  8.6472e-05|    0.049784|
|        1570|  4.2751e+01|  4.2751e+01|   -8.317053|  8.7616e-05|    0.049691|
|        1580|  4.2751e+01|  4.2751e+01|   -8.314180|  8.8634e-05|    0.049599|
|        1590|  4.2751e+01|  4.2751e+01|   -8.311436|  9.0281e-05|    0.049507|
|        1600|  4.2751e+01|  4.2751e+01|   -8.309664|  8.9292e-05|    0.049415|
+-----------------------------------------------------------------------+
|        File Writing Summary       |              Filename             |
+-----------------------------------------------------------------------+
|SU2 binary restart                 |restart_flow_G4.dat                |
|Paraview                           |flow_G4.vtu                        |
|Paraview surface                   |surface_flow_G4.vtu                |
+-----------------------------------------------------------------------+
+-----------------------------------------------------------------------------+
|  Inner_Iter|     Min CFL|     Max CFL|      rms[P]|  Cauchy[CD]|          CD|
+-----------------------------------------------------------------------------+
|        1610|  4.2751e+01|  4.2751e+01|   -8.309525|  8.8238e-05|    0.049322|
|        1620|  4.2751e+01|  4.2751e+01|   -8.310413|  8.7237e-05|    0.049230|
|        1630|  4.2751e+01|  4.2751e+01|   -8.312201|  8.6306e-05|    0.049138|
|        1640|  4.2751e+01|  4.2751e+01|   -8.314543|  8.5422e-05|    0.049047|
|        1650|  4.2751e+01|  4.2751e+01|   -8.315719|  8.4602e-05|    0.048957|
|        1660|  4.2751e+01|  4.2751e+01|   -8.318240|  8.3798e-05|    0.048866|
|        1670|  4.2751e+01|  4.2751e+01|   -8.322123|  8.4852e-05|    0.048777|
|        1680|  4.2751e+01|  4.2751e+01|   -8.326642|  8.6051e-05|    0.048687|
|        1690|  4.2751e+01|  4.2751e+01|   -8.330716|  8.8141e-05|    0.048599|
|        1700|  7.3874e+00|  7.3874e+00|   -8.314429|  8.6830e-05|    0.048533|
|        1710|  4.5741e+01|  4.5741e+01|   -8.350858|  8.4415e-05|    0.048492|
|        1720|  2.3601e+01|  2.3601e+01|   -8.361569|  8.1512e-05|    0.048463|
|        1730|  4.0783e+01|  4.0783e+01|   -8.344614|  8.0455e-05|    0.048389|
|        1740|  4.0783e+01|  4.0783e+01|   -8.346739|  7.9773e-05|    0.048306|
|        1750|  4.0783e+01|  4.0783e+01|   -8.347407|  7.9519e-05|    0.048223|
|        1760|  4.0783e+01|  4.0783e+01|   -8.349187|  8.1572e-05|    0.048140|
|        1770|  4.0783e+01|  4.0783e+01|   -8.350211|  8.3266e-05|    0.048057|
|        1780|  4.0783e+01|  4.0783e+01|   -8.351246|  8.3612e-05|    0.047975|
|        1790|  4.0783e+01|  4.0783e+01|   -8.351877|  8.3135e-05|    0.047894|
|        1800|  4.0783e+01|  4.0783e+01|   -8.352009|  8.2599e-05|    0.047813|
+-----------------------------------------------------------------------+
|        File Writing Summary       |              Filename             |
+-----------------------------------------------------------------------+
|SU2 binary restart                 |restart_flow_G4.dat                |
|Paraview                           |flow_G4.vtu                        |
|Paraview surface                   |surface_flow_G4.vtu                |
+-----------------------------------------------------------------------+
+-----------------------------------------------------------------------------+
|  Inner_Iter|     Min CFL|     Max CFL|      rms[P]|  Cauchy[CD]|          CD|
+-----------------------------------------------------------------------------+
|        1810|  4.0783e+01|  4.0783e+01|   -8.352051|  8.2110e-05|    0.047731|
|        1820|  4.0783e+01|  4.0783e+01|   -8.352187|  8.1653e-05|    0.047650|
|        1830|  4.0783e+01|  4.0783e+01|   -8.352373|  8.1188e-05|    0.047569|
|        1840|  4.0783e+01|  4.0783e+01|   -8.352878|  8.0735e-05|    0.047488|
|        1850|  4.0783e+01|  4.0783e+01|   -8.353450|  8.0280e-05|    0.047408|
|        1860|  4.0783e+01|  4.0783e+01|   -8.354137|  7.9800e-05|    0.047327|
|        1870|  4.0783e+01|  4.0783e+01|   -8.355133|  7.9322e-05|    0.047247|
|        1880|  4.0783e+01|  4.0783e+01|   -8.356556|  7.8871e-05|    0.047166|
|        1890|  4.0783e+01|  4.0783e+01|   -8.358313|  7.8439e-05|    0.047086|
|        1900|  4.0783e+01|  4.0783e+01|   -8.360220|  7.8016e-05|    0.047006|
|        1910|  4.0783e+01|  4.0783e+01|   -8.362275|  7.7598e-05|    0.046926|
|        1920|  4.0783e+01|  4.0783e+01|   -8.364413|  7.7176e-05|    0.046847|
|        1930|  4.0783e+01|  4.0783e+01|   -8.366547|  7.6756e-05|    0.046769|
|        1940|  4.0783e+01|  4.0783e+01|   -8.368793|  7.6341e-05|    0.046690|
|        1950|  4.0783e+01|  4.0783e+01|   -8.371400|  7.6861e-05|    0.046612|
|        1960|  4.0783e+01|  4.0783e+01|   -8.374374|  7.8330e-05|    0.046534|
|        1970|  4.0783e+01|  4.0783e+01|   -8.377509|  8.0259e-05|    0.046457|
|        1980|  4.0783e+01|  4.0783e+01|   -8.380511|  8.0367e-05|    0.046380|
|        1990|  4.0783e+01|  4.0783e+01|   -8.383388|  8.0120e-05|    0.046303|
|        2000|  4.0783e+01|  4.0783e+01|   -8.386426|  7.9826e-05|    0.046227|
+-----------------------------------------------------------------------+
|        File Writing Summary       |              Filename             |
+-----------------------------------------------------------------------+
|SU2 binary restart                 |restart_flow_G4.dat                |
|Paraview                           |flow_G4.vtu                        |
|Paraview surface                   |surface_flow_G4.vtu                |
+-----------------------------------------------------------------------+
+-----------------------------------------------------------------------------+
|  Inner_Iter|     Min CFL|     Max CFL|      rms[P]|  Cauchy[CD]|          CD|
+-----------------------------------------------------------------------------+
|        2010|  4.0783e+01|  4.0783e+01|   -8.389491|  7.9517e-05|    0.046152|
|        2020|  4.0783e+01|  4.0783e+01|   -8.392522|  7.9215e-05|    0.046077|
|        2030|  4.0783e+01|  4.0783e+01|   -8.395272|  7.8921e-05|    0.046002|
|        2040|  4.0783e+01|  4.0783e+01|   -8.397744|  7.8641e-05|    0.045928|
|        2050|  4.0783e+01|  4.0783e+01|   -8.399985|  7.8350e-05|    0.045854|
|        2060|  4.0783e+01|  4.0783e+01|   -8.402194|  7.8022e-05|    0.045781|
|        2070|  4.0783e+01|  4.0783e+01|   -8.404357|  7.7675e-05|    0.045708|
|        2080|  4.0783e+01|  4.0783e+01|   -8.406418|  7.7330e-05|    0.045636|
|        2090|  4.0783e+01|  4.0783e+01|   -8.408334|  7.6985e-05|    0.045564|
|        2100|  4.0783e+01|  4.0783e+01|   -8.410066|  7.6630e-05|    0.045492|
|        2110|  4.0783e+01|  4.0783e+01|   -8.411749|  7.6264e-05|    0.045420|
|        2120|  4.0783e+01|  4.0783e+01|   -8.413305|  7.5891e-05|    0.045349|
|        2130|  4.0783e+01|  4.0783e+01|   -8.414830|  7.5512e-05|    0.045278|
|        2140|  4.0783e+01|  4.0783e+01|   -8.416251|  7.5129e-05|    0.045208|
|        2150|  4.0783e+01|  4.0783e+01|   -8.417773|  7.4743e-05|    0.045138|
|        2160|  4.0783e+01|  4.0783e+01|   -8.419296|  7.4355e-05|    0.045068|
|        2170|  4.0783e+01|  4.0783e+01|   -8.420842|  7.3967e-05|    0.044998|
|        2180|  4.0783e+01|  4.0783e+01|   -8.422397|  7.3580e-05|    0.044929|
|        2190|  4.0783e+01|  4.0783e+01|   -8.424045|  7.3190e-05|    0.044860|
|        2200|  4.0783e+01|  4.0783e+01|   -8.425870|  7.2798e-05|    0.044792|
+-----------------------------------------------------------------------+
|        File Writing Summary       |              Filename             |
+-----------------------------------------------------------------------+
|SU2 binary restart                 |restart_flow_G4.dat                |
|Paraview                           |flow_G4.vtu                        |
|Paraview surface                   |surface_flow_G4.vtu                |
+-----------------------------------------------------------------------+
+-----------------------------------------------------------------------------+
|  Inner_Iter|     Min CFL|     Max CFL|      rms[P]|  Cauchy[CD]|          CD|
+-----------------------------------------------------------------------------+
|        2210|  4.0783e+01|  4.0783e+01|   -8.427846|  7.2406e-05|    0.044724|
|        2220|  4.0783e+01|  4.0783e+01|   -8.429982|  7.2021e-05|    0.044656|
|        2230|  4.0783e+01|  4.0783e+01|   -8.432238|  7.1640e-05|    0.044589|
|        2240|  4.0783e+01|  4.0783e+01|   -8.434543|  7.1261e-05|    0.044522|
|        2250|  4.0783e+01|  4.0783e+01|   -8.436957|  7.0882e-05|    0.044455|
|        2260|  4.0783e+01|  4.0783e+01|   -8.439373|  7.0507e-05|    0.044389|
|        2270|  4.0783e+01|  4.0783e+01|   -8.441850|  7.0135e-05|    0.044323|
|        2280|  4.0783e+01|  4.0783e+01|   -8.444471|  6.9767e-05|    0.044258|
|        2290|  4.0783e+01|  4.0783e+01|   -8.447024|  6.9399e-05|    0.044193|
|        2300|  4.0783e+01|  4.0783e+01|   -8.449473|  6.9031e-05|    0.044128|
|        2310|  4.0783e+01|  4.0783e+01|   -8.451797|  6.8663e-05|    0.044064|
|        2320|  4.0783e+01|  4.0783e+01|   -8.454073|  6.8296e-05|    0.044001|
|        2330|  4.0783e+01|  4.0783e+01|   -8.456399|  6.7930e-05|    0.043937|
|        2340|  4.0783e+01|  4.0783e+01|   -8.458693|  6.7563e-05|    0.043875|
|        2350|  4.0783e+01|  4.0783e+01|   -8.460914|  6.7192e-05|    0.043812|
|        2360|  4.0783e+01|  4.0783e+01|   -8.463052|  6.6818e-05|    0.043750|
|        2370|  4.0783e+01|  4.0783e+01|   -8.465074|  6.6442e-05|    0.043688|
|        2380|  4.0783e+01|  4.0783e+01|   -8.467043|  6.6066e-05|    0.043627|
|        2390|  4.0783e+01|  4.0783e+01|   -8.468878|  6.5687e-05|    0.043566|
|        2400|  4.0783e+01|  4.0783e+01|   -8.470665|  6.5307e-05|    0.043505|
+-----------------------------------------------------------------------+
|        File Writing Summary       |              Filename             |
+-----------------------------------------------------------------------+
|SU2 binary restart                 |restart_flow_G4.dat                |
|Paraview                           |flow_G4.vtu                        |
|Paraview surface                   |surface_flow_G4.vtu                |
+-----------------------------------------------------------------------+
+-----------------------------------------------------------------------------+
|  Inner_Iter|     Min CFL|     Max CFL|      rms[P]|  Cauchy[CD]|          CD|
+-----------------------------------------------------------------------------+
|        2410|  4.0783e+01|  4.0783e+01|   -8.472462|  6.4927e-05|    0.043444|
|        2420|  4.0783e+01|  4.0783e+01|   -8.474262|  6.4550e-05|    0.043384|
|        2430|  4.0783e+01|  4.0783e+01|   -8.475978|  6.4176e-05|    0.043325|
|        2440|  4.0783e+01|  4.0783e+01|   -8.477695|  6.3802e-05|    0.043265|
|        2450|  4.0783e+01|  4.0783e+01|   -8.479411|  6.3425e-05|    0.043206|
|        2460|  4.0783e+01|  4.0783e+01|   -8.481165|  6.3043e-05|    0.043148|
|        2470|  4.0783e+01|  4.0783e+01|   -8.482951|  6.2660e-05|    0.043090|
|        2480|  4.0783e+01|  4.0783e+01|   -8.484785|  6.2280e-05|    0.043032|
|        2490|  4.0783e+01|  4.0783e+01|   -8.486731|  6.1905e-05|    0.042974|
|        2500|  4.0783e+01|  4.0783e+01|   -8.488705|  6.1532e-05|    0.042917|
|        2510|  4.0783e+01|  4.0783e+01|   -8.490683|  6.1159e-05|    0.042860|
|        2520|  4.0783e+01|  4.0783e+01|   -8.492644|  6.0788e-05|    0.042803|
|        2530|  4.0783e+01|  4.0783e+01|   -8.494661|  6.0421e-05|    0.042747|
|        2540|  4.0783e+01|  4.0783e+01|   -8.496807|  6.0060e-05|    0.042691|
|        2550|  4.0783e+01|  4.0783e+01|   -8.499001|  5.9705e-05|    0.042636|
|        2560|  4.0783e+01|  4.0783e+01|   -8.501221|  5.9354e-05|    0.042580|
|        2570|  4.0783e+01|  4.0783e+01|   -8.503329|  5.9001e-05|    0.042526|
|        2580|  4.0783e+01|  4.0783e+01|   -8.505391|  5.8647e-05|    0.042471|
|        2590|  4.0783e+01|  4.0783e+01|   -8.507541|  5.8292e-05|    0.042417|
|        2600|  4.0783e+01|  4.0783e+01|   -8.509683|  5.7940e-05|    0.042364|
+-----------------------------------------------------------------------+
|        File Writing Summary       |              Filename             |
+-----------------------------------------------------------------------+
|SU2 binary restart                 |restart_flow_G4.dat                |
|Paraview                           |flow_G4.vtu                        |
|Paraview surface                   |surface_flow_G4.vtu                |
+-----------------------------------------------------------------------+
+-----------------------------------------------------------------------------+
|  Inner_Iter|     Min CFL|     Max CFL|      rms[P]|  Cauchy[CD]|          CD|
+-----------------------------------------------------------------------------+
|        2610|  4.0783e+01|  4.0783e+01|   -8.511891|  5.7593e-05|    0.042310|
|        2620|  4.0783e+01|  4.0783e+01|   -8.514092|  5.7247e-05|    0.042257|
|        2630|  4.0783e+01|  4.0783e+01|   -8.516253|  5.6902e-05|    0.042204|
|        2640|  4.0783e+01|  4.0783e+01|   -8.518349|  5.6557e-05|    0.042152|
|        2650|  4.0783e+01|  4.0783e+01|   -8.520438|  5.6213e-05|    0.042100|
|        2660|  4.0783e+01|  4.0783e+01|   -8.522549|  5.5872e-05|    0.042048|
|        2670|  4.0783e+01|  4.0783e+01|   -8.524650|  5.5532e-05|    0.041996|
|        2680|  4.0783e+01|  4.0783e+01|   -8.526730|  5.5195e-05|    0.041945|
|        2690|  4.0783e+01|  4.0783e+01|   -8.528784|  5.4859e-05|    0.041894|
|        2700|  4.0783e+01|  4.0783e+01|   -8.530754|  5.4526e-05|    0.041843|
|        2710|  4.0783e+01|  4.0783e+01|   -8.532712|  5.4196e-05|    0.041793|
|        2720|  4.0783e+01|  4.0783e+01|   -8.534664|  5.3867e-05|    0.041743|
|        2730|  4.0783e+01|  4.0783e+01|   -8.536669|  5.3538e-05|    0.041693|
|        2740|  4.0783e+01|  4.0783e+01|   -8.538684|  5.3207e-05|    0.041644|
|        2750|  4.0783e+01|  4.0783e+01|   -8.540653|  5.2875e-05|    0.041595|
|        2760|  4.0783e+01|  4.0783e+01|   -8.542594|  5.2544e-05|    0.041546|
|        2770|  4.0783e+01|  4.0783e+01|   -8.544587|  5.2215e-05|    0.041498|
|        2780|  4.0783e+01|  4.0783e+01|   -8.546621|  5.1888e-05|    0.041450|
|        2790|  4.0783e+01|  4.0783e+01|   -8.548661|  5.1562e-05|    0.041402|
|        2800|  4.0783e+01|  4.0783e+01|   -8.550707|  5.1237e-05|    0.041355|
+-----------------------------------------------------------------------+
|        File Writing Summary       |              Filename             |
+-----------------------------------------------------------------------+
|SU2 binary restart                 |restart_flow_G4.dat                |
|Paraview                           |flow_G4.vtu                        |
|Paraview surface                   |surface_flow_G4.vtu                |
+-----------------------------------------------------------------------+
+-----------------------------------------------------------------------------+
|  Inner_Iter|     Min CFL|     Max CFL|      rms[P]|  Cauchy[CD]|          CD|
+-----------------------------------------------------------------------------+
|        2810|  4.0783e+01|  4.0783e+01|   -8.552722|  5.0914e-05|    0.041308|
|        2820|  4.0783e+01|  4.0783e+01|   -8.554770|  5.0596e-05|    0.041261|
|        2830|  4.0783e+01|  4.0783e+01|   -8.556899|  5.0283e-05|    0.041214|
|        2840|  4.0783e+01|  4.0783e+01|   -8.559091|  4.9975e-05|    0.041168|
|        2850|  4.0783e+01|  4.0783e+01|   -8.561303|  4.9669e-05|    0.041122|
|        2860|  4.0783e+01|  4.0783e+01|   -8.563420|  4.9360e-05|    0.041076|
|        2870|  4.0783e+01|  4.0783e+01|   -8.565485|  4.9049e-05|    0.041031|
|        2880|  4.0783e+01|  4.0783e+01|   -8.567570|  4.8737e-05|    0.040986|
|        2890|  4.0783e+01|  4.0783e+01|   -8.569625|  4.8427e-05|    0.040941|
|        2900|  4.0783e+01|  4.0783e+01|   -8.571862|  4.8117e-05|    0.040897|
|        2910|  4.0783e+01|  4.0783e+01|   -8.574141|  4.7810e-05|    0.040852|
|        2920|  4.0783e+01|  4.0783e+01|   -8.576427|  4.7504e-05|    0.040808|
|        2930|  4.0783e+01|  4.0783e+01|   -8.578643|  4.7199e-05|    0.040765|
|        2940|  4.0783e+01|  4.0783e+01|   -8.580745|  4.6896e-05|    0.040721|
|        2950|  4.0783e+01|  4.0783e+01|   -8.582852|  4.6597e-05|    0.040678|
|        2960|  4.0783e+01|  4.0783e+01|   -8.585017|  4.6301e-05|    0.040635|
|        2970|  4.0783e+01|  4.0783e+01|   -8.587227|  4.6007e-05|    0.040593|
|        2980|  4.0783e+01|  4.0783e+01|   -8.589467|  4.5717e-05|    0.040550|
|        2990|  4.0783e+01|  4.0783e+01|   -8.591661|  4.5428e-05|    0.040508|
|        3000|  4.0783e+01|  4.0783e+01|   -8.593835|  4.5141e-05|    0.040467|
+-----------------------------------------------------------------------+
|        File Writing Summary       |              Filename             |
+-----------------------------------------------------------------------+
|SU2 binary restart                 |restart_flow_G4.dat                |
|Paraview                           |flow_G4.vtu                        |
|Paraview surface                   |surface_flow_G4.vtu                |
+-----------------------------------------------------------------------+
+-----------------------------------------------------------------------------+
|  Inner_Iter|     Min CFL|     Max CFL|      rms[P]|  Cauchy[CD]|          CD|
+-----------------------------------------------------------------------------+
|        3010|  4.0783e+01|  4.0783e+01|   -8.595906|  4.4855e-05|    0.040425|
|        3020|  4.0783e+01|  4.0783e+01|   -8.597967|  4.4570e-05|    0.040384|
|        3030|  4.0783e+01|  4.0783e+01|   -8.600093|  4.4285e-05|    0.040343|
|        3040|  4.0783e+01|  4.0783e+01|   -8.602290|  4.4000e-05|    0.040302|
|        3050|  4.0783e+01|  4.0783e+01|   -8.604496|  4.3716e-05|    0.040262|
|        3060|  4.0783e+01|  4.0783e+01|   -8.606711|  4.3433e-05|    0.040222|
|        3070|  4.0783e+01|  4.0783e+01|   -8.608867|  4.3152e-05|    0.040182|
|        3080|  4.0783e+01|  4.0783e+01|   -8.611026|  4.2872e-05|    0.040142|
|        3090|  4.0783e+01|  4.0783e+01|   -8.613164|  4.2592e-05|    0.040103|
|        3100|  4.0783e+01|  4.0783e+01|   -8.615366|  4.2314e-05|    0.040064|
|        3110|  4.0783e+01|  4.0783e+01|   -8.617605|  4.2039e-05|    0.040025|
|        3120|  4.0783e+01|  4.0783e+01|   -8.619810|  4.1767e-05|    0.039987|
|        3130|  4.0783e+01|  4.0783e+01|   -8.621964|  4.1499e-05|    0.039948|
|        3140|  4.0783e+01|  4.0783e+01|   -8.624128|  4.1234e-05|    0.039910|
|        3150|  4.0783e+01|  4.0783e+01|   -8.626277|  4.0971e-05|    0.039872|
|        3160|  4.0783e+01|  4.0783e+01|   -8.628529|  4.0709e-05|    0.039835|
|        3170|  4.0783e+01|  4.0783e+01|   -8.630778|  4.0446e-05|    0.039797|
|        3180|  4.0783e+01|  4.0783e+01|   -8.633020|  4.0182e-05|    0.039760|
|        3190|  4.0783e+01|  4.0783e+01|   -8.635202|  3.9918e-05|    0.039723|
|        3200|  4.0783e+01|  4.0783e+01|   -8.637376|  3.9653e-05|    0.039687|
+-----------------------------------------------------------------------+
|        File Writing Summary       |              Filename             |
+-----------------------------------------------------------------------+
|SU2 binary restart                 |restart_flow_G4.dat                |
|Paraview                           |flow_G4.vtu                        |
|Paraview surface                   |surface_flow_G4.vtu                |
+-----------------------------------------------------------------------+
+-----------------------------------------------------------------------------+
|  Inner_Iter|     Min CFL|     Max CFL|      rms[P]|  Cauchy[CD]|          CD|
+-----------------------------------------------------------------------------+
|        3210|  4.0783e+01|  4.0783e+01|   -8.639555|  3.9388e-05|    0.039651|
|        3220|  4.0783e+01|  4.0783e+01|   -8.641810|  3.9125e-05|    0.039615|
|        3230|  4.0783e+01|  4.0783e+01|   -8.644139|  3.8863e-05|    0.039579|
|        3240|  4.0783e+01|  4.0783e+01|   -8.646464|  3.8603e-05|    0.039543|
|        3250|  4.0783e+01|  4.0783e+01|   -8.648756|  3.8346e-05|    0.039508|
|        3260|  4.0783e+01|  4.0783e+01|   -8.650993|  3.8091e-05|    0.039473|
|        3270|  4.0783e+01|  4.0783e+01|   -8.653141|  3.7839e-05|    0.039438|
|        3280|  4.0783e+01|  4.0783e+01|   -8.655387|  3.7591e-05|    0.039403|
|        3290|  4.0783e+01|  4.0783e+01|   -8.657728|  3.7345e-05|    0.039369|
|        3300|  4.0783e+01|  4.0783e+01|   -8.660088|  3.7102e-05|    0.039334|
|        3310|  4.0783e+01|  4.0783e+01|   -8.662398|  3.6860e-05|    0.039300|
|        3320|  4.0783e+01|  4.0783e+01|   -8.664706|  3.6620e-05|    0.039266|
|        3330|  4.0783e+01|  4.0783e+01|   -8.666942|  3.6380e-05|    0.039233|
|        3340|  4.0783e+01|  4.0783e+01|   -8.669135|  3.6140e-05|    0.039200|
|        3350|  4.0783e+01|  4.0783e+01|   -8.671303|  3.5900e-05|    0.039166|
|        3360|  4.0783e+01|  4.0783e+01|   -8.673555|  3.5660e-05|    0.039134|
|        3370|  4.0783e+01|  4.0783e+01|   -8.675843|  3.5420e-05|    0.039101|
|        3380|  4.0783e+01|  4.0783e+01|   -8.678152|  3.5181e-05|    0.039069|
|        3390|  4.0783e+01|  4.0783e+01|   -8.680465|  3.4944e-05|    0.039037|
|        3400|  4.0783e+01|  4.0783e+01|   -8.682724|  3.4708e-05|    0.039005|
+-----------------------------------------------------------------------+
|        File Writing Summary       |              Filename             |
+-----------------------------------------------------------------------+
|SU2 binary restart                 |restart_flow_G4.dat                |
|Paraview                           |flow_G4.vtu                        |
|Paraview surface                   |surface_flow_G4.vtu                |
+-----------------------------------------------------------------------+
+-----------------------------------------------------------------------------+
|  Inner_Iter|     Min CFL|     Max CFL|      rms[P]|  Cauchy[CD]|          CD|
+-----------------------------------------------------------------------------+
|        3410|  4.0783e+01|  4.0783e+01|   -8.684970|  3.4474e-05|    0.038973|
|        3420|  4.0783e+01|  4.0783e+01|   -8.687281|  3.4243e-05|    0.038941|
|        3430|  4.0783e+01|  4.0783e+01|   -8.689618|  3.4015e-05|    0.038910|
|        3440|  4.0783e+01|  4.0783e+01|   -8.691992|  3.3791e-05|    0.038879|
|        3450|  4.0783e+01|  4.0783e+01|   -8.694332|  3.3569e-05|    0.038848|
|        3460|  4.0783e+01|  4.0783e+01|   -8.696635|  3.3348e-05|    0.038817|
|        3470|  4.0783e+01|  4.0783e+01|   -8.698948|  3.3129e-05|    0.038786|
|        3480|  4.0783e+01|  4.0783e+01|   -8.701278|  3.2912e-05|    0.038756|
|        3490|  4.0783e+01|  4.0783e+01|   -8.703577|  3.2695e-05|    0.038726|
|        3500|  4.0783e+01|  4.0783e+01|   -8.705888|  3.2478e-05|    0.038696|
|        3510|  4.0783e+01|  4.0783e+01|   -8.708224|  3.2261e-05|    0.038666|
|        3520|  4.0783e+01|  4.0783e+01|   -8.710579|  3.2044e-05|    0.038637|
|        3530|  4.0783e+01|  4.0783e+01|   -8.712918|  3.1827e-05|    0.038607|
|        3540|  4.0783e+01|  4.0783e+01|   -8.715304|  3.1609e-05|    0.038578|
|        3550|  4.0783e+01|  4.0783e+01|   -8.717680|  3.1393e-05|    0.038550|
|        3560|  4.0783e+01|  4.0783e+01|   -8.720057|  3.1176e-05|    0.038521|
|        3570|  4.0783e+01|  4.0783e+01|   -8.722421|  3.0961e-05|    0.038492|
|        3580|  4.0783e+01|  4.0783e+01|   -8.724856|  3.0748e-05|    0.038464|
|        3590|  4.0783e+01|  4.0783e+01|   -8.727341|  3.0537e-05|    0.038436|
|        3600|  4.0783e+01|  4.0783e+01|   -8.729760|  3.0330e-05|    0.038408|
+-----------------------------------------------------------------------+
|        File Writing Summary       |              Filename             |
+-----------------------------------------------------------------------+
|SU2 binary restart                 |restart_flow_G4.dat                |
|Paraview                           |flow_G4.vtu                        |
|Paraview surface                   |surface_flow_G4.vtu                |
+-----------------------------------------------------------------------+
+-----------------------------------------------------------------------------+
|  Inner_Iter|     Min CFL|     Max CFL|      rms[P]|  Cauchy[CD]|          CD|
+-----------------------------------------------------------------------------+
|        3610|  4.0783e+01|  4.0783e+01|   -8.732116|  3.0126e-05|    0.038381|
|        3620|  4.0783e+01|  4.0783e+01|   -8.734432|  2.9924e-05|    0.038353|
|        3630|  4.0783e+01|  4.0783e+01|   -8.736806|  2.9724e-05|    0.038326|
|        3640|  4.0783e+01|  4.0783e+01|   -8.739230|  2.9525e-05|    0.038298|
|        3650|  4.0783e+01|  4.0783e+01|   -8.741699|  2.9327e-05|    0.038271|
|        3660|  4.0783e+01|  4.0783e+01|   -8.744159|  2.9130e-05|    0.038245|
|        3670|  4.0783e+01|  4.0783e+01|   -8.746571|  2.8934e-05|    0.038218|
|        3680|  4.0783e+01|  4.0783e+01|   -8.748911|  2.8738e-05|    0.038191|
|        3690|  4.0783e+01|  4.0783e+01|   -8.751213|  2.8543e-05|    0.038165|
|        3700|  4.0783e+01|  4.0783e+01|   -8.753514|  2.8349e-05|    0.038139|
|        3710|  4.0783e+01|  4.0783e+01|   -8.755874|  2.8153e-05|    0.038113|
|        3720|  4.0783e+01|  4.0783e+01|   -8.758292|  2.7958e-05|    0.038087|
|        3730|  4.0783e+01|  4.0783e+01|   -8.760700|  2.7764e-05|    0.038062|
|        3740|  4.0783e+01|  4.0783e+01|   -8.763133|  2.7571e-05|    0.038037|
|        3750|  4.0783e+01|  4.0783e+01|   -8.765550|  2.7380e-05|    0.038011|
|        3760|  4.0783e+01|  4.0783e+01|   -8.767956|  2.7190e-05|    0.037986|
|        3770|  4.0783e+01|  4.0783e+01|   -8.770385|  2.7002e-05|    0.037962|
|        3780|  4.0783e+01|  4.0783e+01|   -8.772787|  2.6816e-05|    0.037937|
|        3790|  4.0783e+01|  4.0783e+01|   -8.775231|  2.6632e-05|    0.037913|
|        3800|  4.0783e+01|  4.0783e+01|   -8.777676|  2.6450e-05|    0.037888|
+-----------------------------------------------------------------------+
|        File Writing Summary       |              Filename             |
+-----------------------------------------------------------------------+
|SU2 binary restart                 |restart_flow_G4.dat                |
|Paraview                           |flow_G4.vtu                        |
|Paraview surface                   |surface_flow_G4.vtu                |
+-----------------------------------------------------------------------+
+-----------------------------------------------------------------------------+
|  Inner_Iter|     Min CFL|     Max CFL|      rms[P]|  Cauchy[CD]|          CD|
+-----------------------------------------------------------------------------+
|        3810|  4.0783e+01|  4.0783e+01|   -8.780144|  2.6271e-05|    0.037864|
|        3820|  4.0783e+01|  4.0783e+01|   -8.782649|  2.6094e-05|    0.037840|
|        3830|  4.0783e+01|  4.0783e+01|   -8.785140|  2.5918e-05|    0.037816|
|        3840|  4.0783e+01|  4.0783e+01|   -8.787620|  2.5744e-05|    0.037793|
|        3850|  4.0783e+01|  4.0783e+01|   -8.790085|  2.5570e-05|    0.037769|
|        3860|  4.0783e+01|  4.0783e+01|   -8.792494|  2.5397e-05|    0.037746|
|        3870|  4.0783e+01|  4.0783e+01|   -8.794948|  2.5225e-05|    0.037722|
|        3880|  4.0783e+01|  4.0783e+01|   -8.797416|  2.5054e-05|    0.037699|
|        3890|  4.0783e+01|  4.0783e+01|   -8.799890|  2.4882e-05|    0.037676|
|        3900|  4.0783e+01|  4.0783e+01|   -8.802365|  2.4710e-05|    0.037654|
|        3910|  4.0783e+01|  4.0783e+01|   -8.804815|  2.4538e-05|    0.037631|
|        3920|  4.0783e+01|  4.0783e+01|   -8.807249|  2.4366e-05|    0.037609|
|        3930|  4.0783e+01|  4.0783e+01|   -8.809730|  2.4195e-05|    0.037587|
|        3940|  4.0783e+01|  4.0783e+01|   -8.812284|  2.4025e-05|    0.037565|
|        3950|  4.0783e+01|  4.0783e+01|   -8.814892|  2.3856e-05|    0.037543|
|        3960|  4.0783e+01|  4.0783e+01|   -8.817480|  2.3690e-05|    0.037521|
|        3970|  4.0783e+01|  4.0783e+01|   -8.820033|  2.3526e-05|    0.037499|
|        3980|  4.0783e+01|  4.0783e+01|   -8.822568|  2.3364e-05|    0.037478|
|        3990|  4.0783e+01|  4.0783e+01|   -8.825088|  2.3203e-05|    0.037456|
|        4000|  4.0783e+01|  4.0783e+01|   -8.827569|  2.3045e-05|    0.037435|
+-----------------------------------------------------------------------+
|        File Writing Summary       |              Filename             |
+-----------------------------------------------------------------------+
|SU2 binary restart                 |restart_flow_G4.dat                |
|Paraview                           |flow_G4.vtu                        |
|Paraview surface                   |surface_flow_G4.vtu                |
+-----------------------------------------------------------------------+
+-----------------------------------------------------------------------------+
|  Inner_Iter|     Min CFL|     Max CFL|      rms[P]|  Cauchy[CD]|          CD|
+-----------------------------------------------------------------------------+
|        4010|  4.0783e+01|  4.0783e+01|   -8.830069|  2.2889e-05|    0.037414|
|        4020|  4.0783e+01|  4.0783e+01|   -8.832596|  2.2734e-05|    0.037393|
|        4030|  4.0783e+01|  4.0783e+01|   -8.835151|  2.2580e-05|    0.037373|
|        4040|  4.0783e+01|  4.0783e+01|   -8.837772|  2.2426e-05|    0.037352|
|        4050|  4.0783e+01|  4.0783e+01|   -8.840361|  2.2274e-05|    0.037331|
|        4060|  4.0783e+01|  4.0783e+01|   -8.842908|  2.2122e-05|    0.037311|
|        4070|  4.0783e+01|  4.0783e+01|   -8.845395|  2.1970e-05|    0.037291|
|        4080|  4.0783e+01|  4.0783e+01|   -8.847889|  2.1819e-05|    0.037271|
|        4090|  4.0783e+01|  4.0783e+01|   -8.850432|  2.1669e-05|    0.037251|
|        4100|  4.0783e+01|  4.0783e+01|   -8.852974|  2.1518e-05|    0.037231|
|        4110|  4.0783e+01|  4.0783e+01|   -8.855558|  2.1367e-05|    0.037211|
|        4120|  4.0783e+01|  4.0783e+01|   -8.858139|  2.1217e-05|    0.037192|
|        4130|  4.0783e+01|  4.0783e+01|   -8.860687|  2.1067e-05|    0.037173|
|        4140|  4.0783e+01|  4.0783e+01|   -8.863224|  2.0918e-05|    0.037153|
|        4150|  4.0783e+01|  4.0783e+01|   -8.865769|  2.0770e-05|    0.037134|
|        4160|  4.0783e+01|  4.0783e+01|   -8.868354|  2.0623e-05|    0.037116|
|        4170|  4.0783e+01|  4.0783e+01|   -8.870918|  2.0477e-05|    0.037097|
|        4180|  4.0783e+01|  4.0783e+01|   -8.873457|  2.0333e-05|    0.037078|
|        4190|  4.0783e+01|  4.0783e+01|   -8.876018|  2.0191e-05|    0.037060|
|        4200|  4.0783e+01|  4.0783e+01|   -8.878571|  2.0050e-05|    0.037041|
+-----------------------------------------------------------------------+
|        File Writing Summary       |              Filename             |
+-----------------------------------------------------------------------+
|SU2 binary restart                 |restart_flow_G4.dat                |
|Paraview                           |flow_G4.vtu                        |
|Paraview surface                   |surface_flow_G4.vtu                |
+-----------------------------------------------------------------------+
+-----------------------------------------------------------------------------+
|  Inner_Iter|     Min CFL|     Max CFL|      rms[P]|  Cauchy[CD]|          CD|
+-----------------------------------------------------------------------------+
|        4210|  4.0783e+01|  4.0783e+01|   -8.881204|  1.9910e-05|    0.037023|
|        4220|  4.0783e+01|  4.0783e+01|   -8.883872|  1.9772e-05|    0.037005|
|        4230|  4.0783e+01|  4.0783e+01|   -8.886535|  1.9634e-05|    0.036987|
|        4240|  4.0783e+01|  4.0783e+01|   -8.889158|  1.9497e-05|    0.036969|
|        4250|  4.0783e+01|  4.0783e+01|   -8.891777|  1.9361e-05|    0.036951|
|        4260|  4.0783e+01|  4.0783e+01|   -8.894354|  1.9225e-05|    0.036934|
|        4270|  4.0783e+01|  4.0783e+01|   -8.896959|  1.9091e-05|    0.036916|
|        4280|  4.0783e+01|  4.0783e+01|   -8.899610|  1.8958e-05|    0.036899|
|        4290|  4.0783e+01|  4.0783e+01|   -8.902223|  1.8825e-05|    0.036881|
|        4300|  4.0783e+01|  4.0783e+01|   -8.904803|  1.8694e-05|    0.036864|
|        4310|  4.0783e+01|  4.0783e+01|   -8.907384|  1.8563e-05|    0.036847|
|        4320|  4.0783e+01|  4.0783e+01|   -8.909979|  1.8433e-05|    0.036830|
|        4330|  4.0783e+01|  4.0783e+01|   -8.912624|  1.8304e-05|    0.036813|
|        4340|  4.0783e+01|  4.0783e+01|   -8.915319|  1.8176e-05|    0.036796|
|        4350|  4.0783e+01|  4.0783e+01|   -8.918024|  1.8049e-05|    0.036780|
|        4360|  4.0783e+01|  4.0783e+01|   -8.920735|  1.7923e-05|    0.036763|
|        4370|  4.0783e+01|  4.0783e+01|   -8.923419|  1.7799e-05|    0.036747|
|        4380|  4.0783e+01|  4.0783e+01|   -8.926091|  1.7676e-05|    0.036731|
|        4390|  4.0783e+01|  4.0783e+01|   -8.928711|  1.7554e-05|    0.036715|
|        4400|  4.0783e+01|  4.0783e+01|   -8.931338|  1.7433e-05|    0.036699|
+-----------------------------------------------------------------------+
|        File Writing Summary       |              Filename             |
+-----------------------------------------------------------------------+
|SU2 binary restart                 |restart_flow_G4.dat                |
|Paraview                           |flow_G4.vtu                        |
|Paraview surface                   |surface_flow_G4.vtu                |
+-----------------------------------------------------------------------+
+-----------------------------------------------------------------------------+
|  Inner_Iter|     Min CFL|     Max CFL|      rms[P]|  Cauchy[CD]|          CD|
+-----------------------------------------------------------------------------+
|        4410|  4.0783e+01|  4.0783e+01|   -8.933986|  1.7312e-05|    0.036683|
|        4420|  4.0783e+01|  4.0783e+01|   -8.936667|  1.7193e-05|    0.036667|
|        4430|  4.0783e+01|  4.0783e+01|   -8.939375|  1.7073e-05|    0.036651|
|        4440|  4.0783e+01|  4.0783e+01|   -8.942085|  1.6954e-05|    0.036636|
|        4450|  4.0783e+01|  4.0783e+01|   -8.944771|  1.6835e-05|    0.036620|
|        4460|  4.0783e+01|  4.0783e+01|   -8.947451|  1.6716e-05|    0.036605|
|        4470|  4.0783e+01|  4.0783e+01|   -8.950153|  1.6597e-05|    0.036590|
|        4480|  4.0783e+01|  4.0783e+01|   -8.952850|  1.6478e-05|    0.036575|
|        4490|  4.0783e+01|  4.0783e+01|   -8.955542|  1.6360e-05|    0.036560|
|        4500|  4.0783e+01|  4.0783e+01|   -8.958232|  1.6243e-05|    0.036545|
|        4510|  4.0783e+01|  4.0783e+01|   -8.960936|  1.6127e-05|    0.036530|
|        4520|  4.0783e+01|  4.0783e+01|   -8.963658|  1.6013e-05|    0.036516|
|        4530|  4.0783e+01|  4.0783e+01|   -8.966360|  1.5899e-05|    0.036501|
|        4540|  4.0783e+01|  4.0783e+01|   -8.969060|  1.5787e-05|    0.036487|
|        4550|  4.0783e+01|  4.0783e+01|   -8.971748|  1.5675e-05|    0.036472|
|        4560|  4.0783e+01|  4.0783e+01|   -8.974446|  1.5564e-05|    0.036458|
|        4570|  4.0783e+01|  4.0783e+01|   -8.977174|  1.5454e-05|    0.036444|
|        4580|  4.0783e+01|  4.0783e+01|   -8.979951|  1.5344e-05|    0.036430|
|        4590|  4.0783e+01|  4.0783e+01|   -8.982743|  1.5236e-05|    0.036416|
|        4600|  4.0783e+01|  4.0783e+01|   -8.985522|  1.5128e-05|    0.036402|
+-----------------------------------------------------------------------+
|        File Writing Summary       |              Filename             |
+-----------------------------------------------------------------------+
|SU2 binary restart                 |restart_flow_G4.dat                |
|Paraview                           |flow_G4.vtu                        |
|Paraview surface                   |surface_flow_G4.vtu                |
+-----------------------------------------------------------------------+
+-----------------------------------------------------------------------------+
|  Inner_Iter|     Min CFL|     Max CFL|      rms[P]|  Cauchy[CD]|          CD|
+-----------------------------------------------------------------------------+
|        4610|  4.0783e+01|  4.0783e+01|   -8.988250|  1.5020e-05|    0.036388|
|        4620|  4.0783e+01|  4.0783e+01|   -8.990947|  1.4914e-05|    0.036374|
|        4630|  4.0783e+01|  4.0783e+01|   -8.993640|  1.4807e-05|    0.036361|
|        4640|  4.0783e+01|  4.0783e+01|   -8.996393|  1.4702e-05|    0.036347|
|        4650|  4.0783e+01|  4.0783e+01|   -8.999199|  1.4598e-05|    0.036334|
|        4660|  4.0783e+01|  4.0783e+01|   -9.002025|  1.4495e-05|    0.036320|
|        4670|  4.0783e+01|  4.0783e+01|   -9.004833|  1.4393e-05|    0.036307|
|        4680|  4.0783e+01|  4.0783e+01|   -9.007643|  1.4292e-05|    0.036294|
|        4690|  4.0783e+01|  4.0783e+01|   -9.010434|  1.4192e-05|    0.036281|
|        4700|  4.0783e+01|  4.0783e+01|   -9.013187|  1.4092e-05|    0.036268|
|        4710|  4.0783e+01|  4.0783e+01|   -9.015911|  1.3994e-05|    0.036255|
|        4720|  4.0783e+01|  4.0783e+01|   -9.018636|  1.3897e-05|    0.036243|
|        4730|  4.0783e+01|  4.0783e+01|   -9.021411|  1.3802e-05|    0.036230|
|        4740|  4.0783e+01|  4.0783e+01|   -9.024221|  1.3708e-05|    0.036217|
|        4750|  4.0783e+01|  4.0783e+01|   -9.027028|  1.3614e-05|    0.036205|
|        4760|  4.0783e+01|  4.0783e+01|   -9.029802|  1.3520e-05|    0.036192|
|        4770|  4.0783e+01|  4.0783e+01|   -9.032571|  1.3427e-05|    0.036180|
|        4780|  4.0783e+01|  4.0783e+01|   -9.035305|  1.3333e-05|    0.036168|
|        4790|  4.0783e+01|  4.0783e+01|   -9.038065|  1.3239e-05|    0.036156|
|        4800|  4.0783e+01|  4.0783e+01|   -9.040834|  1.3145e-05|    0.036144|
+-----------------------------------------------------------------------+
|        File Writing Summary       |              Filename             |
+-----------------------------------------------------------------------+
|SU2 binary restart                 |restart_flow_G4.dat                |
|Paraview                           |flow_G4.vtu                        |
|Paraview surface                   |surface_flow_G4.vtu                |
+-----------------------------------------------------------------------+
+-----------------------------------------------------------------------------+
|  Inner_Iter|     Min CFL|     Max CFL|      rms[P]|  Cauchy[CD]|          CD|
+-----------------------------------------------------------------------------+
|        4810|  4.0783e+01|  4.0783e+01|   -9.043621|  1.3052e-05|    0.036132|
|        4820|  4.0783e+01|  4.0783e+01|   -9.046384|  1.2959e-05|    0.036120|
|        4830|  4.0783e+01|  4.0783e+01|   -9.049186|  1.2866e-05|    0.036108|
|        4840|  4.0783e+01|  4.0783e+01|   -9.052005|  1.2774e-05|    0.036096|
|        4850|  4.0783e+01|  4.0783e+01|   -9.054847|  1.2682e-05|    0.036085|
|        4860|  4.0783e+01|  4.0783e+01|   -9.057711|  1.2590e-05|    0.036073|
|        4870|  4.0783e+01|  4.0783e+01|   -9.060608|  1.2500e-05|    0.036062|
|        4880|  4.0783e+01|  4.0783e+01|   -9.063523|  1.2411e-05|    0.036050|
|        4890|  4.0783e+01|  4.0783e+01|   -9.066433|  1.2323e-05|    0.036039|
|        4900|  4.0783e+01|  4.0783e+01|   -9.069340|  1.2236e-05|    0.036028|
|        4910|  4.0783e+01|  4.0783e+01|   -9.072238|  1.2149e-05|    0.036017|
|        4920|  4.0783e+01|  4.0783e+01|   -9.075138|  1.2062e-05|    0.036006|
|        4930|  4.0783e+01|  4.0783e+01|   -9.078019|  1.1976e-05|    0.035995|
|        4940|  4.0783e+01|  4.0783e+01|   -9.080905|  1.1890e-05|    0.035984|
|        4950|  4.0783e+01|  4.0783e+01|   -9.083796|  1.1805e-05|    0.035973|
|        4960|  4.0783e+01|  4.0783e+01|   -9.086671|  1.1720e-05|    0.035962|
|        4970|  4.0783e+01|  4.0783e+01|   -9.089503|  1.1635e-05|    0.035952|
|        4980|  4.0783e+01|  4.0783e+01|   -9.092324|  1.1550e-05|    0.035941|
|        4990|  4.0783e+01|  4.0783e+01|   -9.095149|  1.1464e-05|    0.035931|
|        5000|  4.0783e+01|  4.0783e+01|   -9.097987|  1.1379e-05|    0.035920|
+-----------------------------------------------------------------------+
|        File Writing Summary       |              Filename             |
+-----------------------------------------------------------------------+
|SU2 binary restart                 |restart_flow_G4.dat                |
|Paraview                           |flow_G4.vtu                        |
|Paraview surface                   |surface_flow_G4.vtu                |
+-----------------------------------------------------------------------+
+-----------------------------------------------------------------------------+
|  Inner_Iter|     Min CFL|     Max CFL|      rms[P]|  Cauchy[CD]|          CD|
+-----------------------------------------------------------------------------+
|        5010|  4.0783e+01|  4.0783e+01|   -9.100831|  1.1295e-05|    0.035910|
|        5020|  4.0783e+01|  4.0783e+01|   -9.103674|  1.1211e-05|    0.035900|
|        5030|  4.0783e+01|  4.0783e+01|   -9.106527|  1.1127e-05|    0.035890|
|        5040|  4.0783e+01|  4.0783e+01|   -9.109397|  1.1043e-05|    0.035880|
|        5050|  4.0783e+01|  4.0783e+01|   -9.112255|  1.0961e-05|    0.035870|
|        5060|  4.0783e+01|  4.0783e+01|   -9.115101|  1.0879e-05|    0.035860|
|        5070|  4.0783e+01|  4.0783e+01|   -9.117942|  1.0799e-05|    0.035850|
|        5080|  4.0783e+01|  4.0783e+01|   -9.120784|  1.0719e-05|    0.035840|
|        5090|  4.0783e+01|  4.0783e+01|   -9.123643|  1.0641e-05|    0.035830|
|        5100|  4.0783e+01|  4.0783e+01|   -9.126545|  1.0565e-05|    0.035820|
|        5110|  4.0783e+01|  4.0783e+01|   -9.129427|  1.0489e-05|    0.035811|
|        5120|  4.0783e+01|  4.0783e+01|   -9.132290|  1.0414e-05|    0.035801|
|        5130|  4.0783e+01|  4.0783e+01|   -9.135152|  1.0340e-05|    0.035792|
|        5140|  4.0783e+01|  4.0783e+01|   -9.138035|  1.0267e-05|    0.035782|
|        5150|  4.0783e+01|  4.0783e+01|   -9.140958|  1.0195e-05|    0.035773|
|        5160|  4.0783e+01|  4.0783e+01|   -9.143868|  1.0124e-05|    0.035764|
|        5170|  4.0783e+01|  4.0783e+01|   -9.146776|  1.0053e-05|    0.035754|
|        5180|  4.0783e+01|  4.0783e+01|   -9.149641|  9.9840e-06|    0.035745|
|        5190|  4.0783e+01|  4.0783e+01|   -9.152502|  9.9157e-06|    0.035736|
|        5200|  4.0783e+01|  4.0783e+01|   -9.155388|  9.8483e-06|    0.035727|
+-----------------------------------------------------------------------+
|        File Writing Summary       |              Filename             |
+-----------------------------------------------------------------------+
|SU2 binary restart                 |restart_flow_G4.dat                |
|Paraview                           |flow_G4.vtu                        |
|Paraview surface                   |surface_flow_G4.vtu                |
+-----------------------------------------------------------------------+
+-----------------------------------------------------------------------------+
|  Inner_Iter|     Min CFL|     Max CFL|      rms[P]|  Cauchy[CD]|          CD|
+-----------------------------------------------------------------------------+
|        5210|  4.0783e+01|  4.0783e+01|   -9.158304|  9.7817e-06|    0.035718|
|        5220|  4.0783e+01|  4.0783e+01|   -9.161245|  9.7158e-06|    0.035709|
|        5230|  4.0783e+01|  4.0783e+01|   -9.164197|  9.6502e-06|    0.035700|
|        5240|  4.0783e+01|  4.0783e+01|   -9.167151|  9.5849e-06|    0.035691|
|        5250|  4.0783e+01|  4.0783e+01|   -9.170109|  9.5201e-06|    0.035682|
|        5260|  4.0783e+01|  4.0783e+01|   -9.173081|  9.4557e-06|    0.035674|
|        5270|  4.0783e+01|  4.0783e+01|   -9.176077|  9.3919e-06|    0.035665|
|        5280|  4.0783e+01|  4.0783e+01|   -9.179086|  9.3285e-06|    0.035656|
|        5290|  4.0783e+01|  4.0783e+01|   -9.182074|  9.2653e-06|    0.035648|
|        5300|  4.0783e+01|  4.0783e+01|   -9.185038|  9.2021e-06|    0.035639|
|        5310|  4.0783e+01|  4.0783e+01|   -9.188007|  9.1387e-06|    0.035631|
|        5320|  4.0783e+01|  4.0783e+01|   -9.190997|  9.0748e-06|    0.035623|
|        5330|  4.0783e+01|  4.0783e+01|   -9.194043|  9.0106e-06|    0.035615|
|        5340|  4.0783e+01|  4.0783e+01|   -9.197094|  8.9461e-06|    0.035607|
|        5350|  4.0783e+01|  4.0783e+01|   -9.200156|  8.8812e-06|    0.035598|
|        5360|  4.0783e+01|  4.0783e+01|   -9.203233|  8.8162e-06|    0.035590|
|        5370|  4.0783e+01|  4.0783e+01|   -9.206283|  8.7511e-06|    0.035582|
|        5380|  4.0783e+01|  4.0783e+01|   -9.209316|  8.6859e-06|    0.035575|
|        5390|  4.0783e+01|  4.0783e+01|   -9.212342|  8.6207e-06|    0.035567|
|        5400|  4.0783e+01|  4.0783e+01|   -9.215364|  8.5556e-06|    0.035559|
+-----------------------------------------------------------------------+
|        File Writing Summary       |              Filename             |
+-----------------------------------------------------------------------+
|SU2 binary restart                 |restart_flow_G4.dat                |
|Paraview                           |flow_G4.vtu                        |
|Paraview surface                   |surface_flow_G4.vtu                |
+-----------------------------------------------------------------------+
+-----------------------------------------------------------------------------+
|  Inner_Iter|     Min CFL|     Max CFL|      rms[P]|  Cauchy[CD]|          CD|
+-----------------------------------------------------------------------------+
|        5410|  4.0783e+01|  4.0783e+01|   -9.218400|  8.4906e-06|    0.035551|
|        5420|  4.0783e+01|  4.0783e+01|   -9.221426|  8.4257e-06|    0.035544|
|        5430|  4.0783e+01|  4.0783e+01|   -9.224435|  8.3610e-06|    0.035536|
|        5440|  4.0783e+01|  4.0783e+01|   -9.227460|  8.2964e-06|    0.035529|
|        5450|  4.0783e+01|  4.0783e+01|   -9.230480|  8.2321e-06|    0.035521|
|        5460|  4.0783e+01|  4.0783e+01|   -9.233472|  8.1680e-06|    0.035514|
|        5470|  4.0783e+01|  4.0783e+01|   -9.236436|  8.1045e-06|    0.035506|
|        5480|  4.0783e+01|  4.0783e+01|   -9.239402|  8.0415e-06|    0.035499|
|        5490|  4.0783e+01|  4.0783e+01|   -9.242404|  7.9792e-06|    0.035492|
|        5500|  4.0783e+01|  4.0783e+01|   -9.245416|  7.9175e-06|    0.035484|
|        5510|  4.0783e+01|  4.0783e+01|   -9.248412|  7.8562e-06|    0.035477|
|        5520|  4.0783e+01|  4.0783e+01|   -9.251406|  7.7955e-06|    0.035470|
|        5530|  4.0783e+01|  4.0783e+01|   -9.254407|  7.7357e-06|    0.035463|
|        5540|  4.0783e+01|  4.0783e+01|   -9.257426|  7.6769e-06|    0.035456|
|        5550|  4.0783e+01|  4.0783e+01|   -9.260420|  7.6193e-06|    0.035449|
|        5560|  4.0783e+01|  4.0783e+01|   -9.263370|  7.5627e-06|    0.035442|
|        5570|  4.0783e+01|  4.0783e+01|   -9.266293|  7.5074e-06|    0.035435|
|        5580|  4.0783e+01|  4.0783e+01|   -9.269199|  7.4531e-06|    0.035428|
|        5590|  4.0783e+01|  4.0783e+01|   -9.272127|  7.4000e-06|    0.035422|
|        5600|  4.0783e+01|  4.0783e+01|   -9.275073|  7.3478e-06|    0.035415|
+-----------------------------------------------------------------------+
|        File Writing Summary       |              Filename             |
+-----------------------------------------------------------------------+
|SU2 binary restart                 |restart_flow_G4.dat                |
|Paraview                           |flow_G4.vtu                        |
|Paraview surface                   |surface_flow_G4.vtu                |
+-----------------------------------------------------------------------+
+-----------------------------------------------------------------------------+
|  Inner_Iter|     Min CFL|     Max CFL|      rms[P]|  Cauchy[CD]|          CD|
+-----------------------------------------------------------------------------+
|        5610|  4.0783e+01|  4.0783e+01|   -9.278012|  7.2964e-06|    0.035408|
|        5620|  4.0783e+01|  4.0783e+01|   -9.280912|  7.2455e-06|    0.035401|
|        5630|  4.0783e+01|  4.0783e+01|   -9.283794|  7.1952e-06|    0.035395|
|        5640|  4.0783e+01|  4.0783e+01|   -9.286709|  7.1454e-06|    0.035388|
|        5650|  4.0783e+01|  4.0783e+01|   -9.289665|  7.0962e-06|    0.035382|
|        5660|  4.0783e+01|  4.0783e+01|   -9.292642|  7.0474e-06|    0.035375|
|        5670|  4.0783e+01|  4.0783e+01|   -9.295608|  6.9991e-06|    0.035369|
|        5680|  4.0783e+01|  4.0783e+01|   -9.298536|  6.9510e-06|    0.035362|
|        5690|  4.0783e+01|  4.0783e+01|   -9.301460|  6.9032e-06|    0.035356|
|        5700|  4.0783e+01|  4.0783e+01|   -9.304395|  6.8557e-06|    0.035350|
|        5710|  4.0783e+01|  4.0783e+01|   -9.307384|  6.8084e-06|    0.035343|
|        5720|  4.0783e+01|  4.0783e+01|   -9.310421|  6.7614e-06|    0.035337|
|        5730|  4.0783e+01|  4.0783e+01|   -9.313473|  6.7145e-06|    0.035331|
[...]
|        6770|  4.0783e+01|  4.0783e+01|   -9.639753|  3.1158e-06|    0.034887|
|        6780|  4.0783e+01|  4.0783e+01|   -9.643032|  3.0940e-06|    0.034885|
|        6790|  4.0783e+01|  4.0783e+01|   -9.646325|  3.0723e-06|    0.034882|
|        6800|  4.0783e+01|  4.0783e+01|   -9.649610|  3.0507e-06|    0.034879|
+-----------------------------------------------------------------------+
|        File Writing Summary       |              Filename             |
+-----------------------------------------------------------------------+
|SU2 binary restart                 |restart_flow_G4.dat                |
|Paraview                           |flow_G4.vtu                        |
|Paraview surface                   |surface_flow_G4.vtu                |
+-----------------------------------------------------------------------+
+-----------------------------------------------------------------------------+
|  Inner_Iter|     Min CFL|     Max CFL|      rms[P]|  Cauchy[CD]|          CD|
+-----------------------------------------------------------------------------+
|        6810|  4.0783e+01|  4.0783e+01|   -9.652909|  3.0291e-06|    0.034876|
|        6820|  4.0783e+01|  4.0783e+01|   -9.656196|  3.0075e-06|    0.034873|
|        6830|  4.0783e+01|  4.0783e+01|   -9.659485|  2.9861e-06|    0.034871|
|        6840|  4.0783e+01|  4.0783e+01|   -9.662776|  2.9647e-06|    0.034868|
|        6850|  4.0783e+01|  4.0783e+01|   -9.666072|  2.9433e-06|    0.034865|
|        6860|  4.0783e+01|  4.0783e+01|   -9.669370|  2.9221e-06|    0.034863|
|        6870|  4.0783e+01|  4.0783e+01|   -9.672674|  2.9010e-06|    0.034860|
|        6880|  4.0783e+01|  4.0783e+01|   -9.675974|  2.8799e-06|    0.034857|
|        6890|  4.0783e+01|  4.0783e+01|   -9.679269|  2.8588e-06|    0.034855|
|        6900|  4.0783e+01|  4.0783e+01|   -9.682557|  2.8378e-06|    0.034852|
|        6910|  4.0783e+01|  4.0783e+01|   -9.685843|  2.8169e-06|    0.034850|
|        6920|  4.0783e+01|  4.0783e+01|   -9.689137|  2.7959e-06|    0.034847|
|        6930|  4.0783e+01|  4.0783e+01|   -9.692451|  2.7750e-06|    0.034844|
|        6940|  4.0783e+01|  4.0783e+01|   -9.695764|  2.7542e-06|    0.034842|
|        6950|  4.0783e+01|  4.0783e+01|   -9.699074|  2.7335e-06|    0.034839|
|        6960|  4.0783e+01|  4.0783e+01|   -9.702370|  2.7128e-06|    0.034837|
|        6970|  4.0783e+01|  4.0783e+01|   -9.705659|  2.6923e-06|    0.034835|
|        6980|  4.0783e+01|  4.0783e+01|   -9.708949|  2.6719e-06|    0.034832|
|        6990|  4.0783e+01|  4.0783e+01|   -9.712227|  2.6517e-06|    0.034830|
|        7000|  4.0783e+01|  4.0783e+01|   -9.715503|  2.6316e-06|    0.034827|
+-----------------------------------------------------------------------+
|        File Writing Summary       |              Filename             |
+-----------------------------------------------------------------------+
|SU2 binary restart                 |restart_flow_G4.dat                |
|Paraview                           |flow_G4.vtu                        |
|Paraview surface                   |surface_flow_G4.vtu                |
+-----------------------------------------------------------------------+
+-----------------------------------------------------------------------------+
|  Inner_Iter|     Min CFL|     Max CFL|      rms[P]|  Cauchy[CD]|          CD|
+-----------------------------------------------------------------------------+
|        7010|  4.0783e+01|  4.0783e+01|   -9.718774|  2.6116e-06|    0.034825|
|        7020|  4.0783e+01|  4.0783e+01|   -9.722035|  2.5918e-06|    0.034823|
|        7030|  4.0783e+01|  4.0783e+01|   -9.725288|  2.5722e-06|    0.034820|
|        7040|  4.0783e+01|  4.0783e+01|   -9.728507|  2.5527e-06|    0.034818|
|        7050|  4.0783e+01|  4.0783e+01|   -9.731747|  2.5333e-06|    0.034816|
|        7060|  4.0783e+01|  4.0783e+01|   -9.734980|  2.5140e-06|    0.034813|
|        7070|  4.0783e+01|  4.0783e+01|   -9.738209|  2.4948e-06|    0.034811|
|        7080|  4.0783e+01|  4.0783e+01|   -9.741437|  2.4758e-06|    0.034809|
|        7090|  4.0783e+01|  4.0783e+01|   -9.744670|  2.4569e-06|    0.034807|
|        7100|  4.0783e+01|  4.0783e+01|   -9.747898|  2.4382e-06|    0.034804|
|        7110|  4.0783e+01|  4.0783e+01|   -9.751129|  2.4196e-06|    0.034802|
|        7120|  4.0783e+01|  4.0783e+01|   -9.754356|  2.4012e-06|    0.034800|
|        7130|  4.0783e+01|  4.0783e+01|   -9.757575|  2.3830e-06|    0.034798|
|        7140|  4.0783e+01|  4.0783e+01|   -9.760789|  2.3650e-06|    0.034796|
|        7150|  4.0783e+01|  4.0783e+01|   -9.764009|  2.3472e-06|    0.034793|
|        7160|  4.0783e+01|  4.0783e+01|   -9.767225|  2.3296e-06|    0.034791|
|        7170|  4.0783e+01|  4.0783e+01|   -9.770450|  2.3122e-06|    0.034789|
|        7180|  4.0783e+01|  4.0783e+01|   -9.773668|  2.2949e-06|    0.034787|
|        7190|  4.0783e+01|  4.0783e+01|   -9.776876|  2.2779e-06|    0.034785|
|        7200|  4.0783e+01|  4.0783e+01|   -9.780088|  2.2610e-06|    0.034783|
+-----------------------------------------------------------------------+
|        File Writing Summary       |              Filename             |
+-----------------------------------------------------------------------+
|SU2 binary restart                 |restart_flow_G4.dat                |
|Paraview                           |flow_G4.vtu                        |
|Paraview surface                   |surface_flow_G4.vtu                |
+-----------------------------------------------------------------------+
+-----------------------------------------------------------------------------+
|  Inner_Iter|     Min CFL|     Max CFL|      rms[P]|  Cauchy[CD]|          CD|
+-----------------------------------------------------------------------------+
|        7210|  4.0783e+01|  4.0783e+01|   -9.783301|  2.2443e-06|    0.034781|
|        7220|  4.0783e+01|  4.0783e+01|   -9.786526|  2.2277e-06|    0.034779|
|        7230|  4.0783e+01|  4.0783e+01|   -9.789764|  2.2113e-06|    0.034777|
|        7240|  4.0783e+01|  4.0783e+01|   -9.792996|  2.1950e-06|    0.034775|
|        7250|  4.0783e+01|  4.0783e+01|   -9.796247|  2.1789e-06|    0.034773|
|        7260|  4.0783e+01|  4.0783e+01|   -9.799493|  2.1628e-06|    0.034771|
|        7270|  4.0783e+01|  4.0783e+01|   -9.802752|  2.1469e-06|    0.034769|
|        7280|  4.0783e+01|  4.0783e+01|   -9.806012|  2.1311e-06|    0.034767|
|        7290|  4.0783e+01|  4.0783e+01|   -9.809280|  2.1155e-06|    0.034765|
|        7300|  4.0783e+01|  4.0783e+01|   -9.812555|  2.0999e-06|    0.034763|
|        7310|  4.0783e+01|  4.0783e+01|   -9.815832|  2.0845e-06|    0.034761|
|        7320|  4.0783e+01|  4.0783e+01|   -9.819112|  2.0692e-06|    0.034759|
|        7330|  4.0783e+01|  4.0783e+01|   -9.822405|  2.0540e-06|    0.034757|
|        7340|  4.0783e+01|  4.0783e+01|   -9.825715|  2.0389e-06|    0.034756|
|        7350|  4.0783e+01|  4.0783e+01|   -9.829032|  2.0239e-06|    0.034754|
|        7360|  4.0783e+01|  4.0783e+01|   -9.832337|  2.0089e-06|    0.034752|
|        7370|  4.0783e+01|  4.0783e+01|   -9.835629|  1.9940e-06|    0.034750|
|        7380|  4.0783e+01|  4.0783e+01|   -9.838923|  1.9792e-06|    0.034748|
|        7390|  4.0783e+01|  4.0783e+01|   -9.842233|  1.9645e-06|    0.034746|
|        7400|  4.0783e+01|  4.0783e+01|   -9.845553|  1.9499e-06|    0.034745|
+-----------------------------------------------------------------------+
|        File Writing Summary       |              Filename             |
+-----------------------------------------------------------------------+
|SU2 binary restart                 |restart_flow_G4.dat                |
|Paraview                           |flow_G4.vtu                        |
|Paraview surface                   |surface_flow_G4.vtu                |
+-----------------------------------------------------------------------+
+-----------------------------------------------------------------------------+
|  Inner_Iter|     Min CFL|     Max CFL|      rms[P]|  Cauchy[CD]|          CD|
+-----------------------------------------------------------------------------+
|        7410|  4.0783e+01|  4.0783e+01|   -9.848865|  1.9353e-06|    0.034743|
|        7420|  4.0783e+01|  4.0783e+01|   -9.852171|  1.9207e-06|    0.034741|
|        7430|  4.0783e+01|  4.0783e+01|   -9.855469|  1.9063e-06|    0.034739|
|        7440|  4.0783e+01|  4.0783e+01|   -9.858777|  1.8919e-06|    0.034738|
|        7450|  4.0783e+01|  4.0783e+01|   -9.862083|  1.8775e-06|    0.034736|
|        7460|  4.0783e+01|  4.0783e+01|   -9.865397|  1.8632e-06|    0.034734|
|        7470|  4.0783e+01|  4.0783e+01|   -9.868700|  1.8489e-06|    0.034733|
|        7480|  4.0783e+01|  4.0783e+01|   -9.871993|  1.8347e-06|    0.034731|
|        7490|  4.0783e+01|  4.0783e+01|   -9.875276|  1.8206e-06|    0.034729|
|        7500|  4.0783e+01|  4.0783e+01|   -9.878552|  1.8066e-06|    0.034728|
|        7510|  4.0783e+01|  4.0783e+01|   -9.881832|  1.7926e-06|    0.034726|
|        7520|  4.0783e+01|  4.0783e+01|   -9.885109|  1.7787e-06|    0.034724|
|        7530|  4.0783e+01|  4.0783e+01|   -9.888376|  1.7650e-06|    0.034723|
|        7540|  4.0783e+01|  4.0783e+01|   -9.891632|  1.7512e-06|    0.034721|
|        7550|  4.0783e+01|  4.0783e+01|   -9.894891|  1.7376e-06|    0.034720|
|        7560|  4.0783e+01|  4.0783e+01|   -9.898141|  1.7241e-06|    0.034718|
|        7570|  4.0783e+01|  4.0783e+01|   -9.901395|  1.7106e-06|    0.034717|
|        7580|  4.0783e+01|  4.0783e+01|   -9.904650|  1.6973e-06|    0.034715|
|        7590|  4.0783e+01|  4.0783e+01|   -9.907897|  1.6841e-06|    0.034713|
|        7600|  4.0783e+01|  4.0783e+01|   -9.911130|  1.6710e-06|    0.034712|
+-----------------------------------------------------------------------+
|        File Writing Summary       |              Filename             |
+-----------------------------------------------------------------------+
|SU2 binary restart                 |restart_flow_G4.dat                |
|Paraview                           |flow_G4.vtu                        |
|Paraview surface                   |surface_flow_G4.vtu                |
+-----------------------------------------------------------------------+
+-----------------------------------------------------------------------------+
|  Inner_Iter|     Min CFL|     Max CFL|      rms[P]|  Cauchy[CD]|          CD|
+-----------------------------------------------------------------------------+
|        7610|  4.0783e+01|  4.0783e+01|   -9.914351|  1.6579e-06|    0.034710|
|        7620|  4.0783e+01|  4.0783e+01|   -9.917568|  1.6451e-06|    0.034709|
|        7630|  4.0783e+01|  4.0783e+01|   -9.920788|  1.6323e-06|    0.034707|
|        7640|  4.0783e+01|  4.0783e+01|   -9.924003|  1.6196e-06|    0.034706|
|        7650|  4.0783e+01|  4.0783e+01|   -9.927204|  1.6071e-06|    0.034705|
|        7660|  4.0783e+01|  4.0783e+01|   -9.930396|  1.5947e-06|    0.034703|
|        7670|  4.0783e+01|  4.0783e+01|   -9.933595|  1.5824e-06|    0.034702|
|        7680|  4.0783e+01|  4.0783e+01|   -9.936810|  1.5702e-06|    0.034700|
|        7690|  4.0783e+01|  4.0783e+01|   -9.940045|  1.5581e-06|    0.034699|
|        7700|  4.0783e+01|  4.0783e+01|   -9.943283|  1.5462e-06|    0.034697|
|        7710|  4.0783e+01|  4.0783e+01|   -9.946518|  1.5344e-06|    0.034696|
|        7720|  4.0783e+01|  4.0783e+01|   -9.949752|  1.5227e-06|    0.034695|
|        7730|  4.0783e+01|  4.0783e+01|   -9.952988|  1.5111e-06|    0.034693|
|        7740|  4.0783e+01|  4.0783e+01|   -9.956217|  1.4997e-06|    0.034692|
|        7750|  4.0783e+01|  4.0783e+01|   -9.959469|  1.4884e-06|    0.034690|
|        7760|  4.0783e+01|  4.0783e+01|   -9.962707|  1.4772e-06|    0.034689|
|        7770|  4.0783e+01|  4.0783e+01|   -9.965944|  1.4661e-06|    0.034688|
|        7780|  4.0783e+01|  4.0783e+01|   -9.969179|  1.4550e-06|    0.034686|
|        7790|  4.0783e+01|  4.0783e+01|   -9.972409|  1.4442e-06|    0.034685|
|        7800|  4.0783e+01|  4.0783e+01|   -9.975646|  1.4334e-06|    0.034684|
+-----------------------------------------------------------------------+
|        File Writing Summary       |              Filename             |
+-----------------------------------------------------------------------+
|SU2 binary restart                 |restart_flow_G4.dat                |
|Paraview                           |flow_G4.vtu                        |
|Paraview surface                   |surface_flow_G4.vtu                |
+-----------------------------------------------------------------------+
+-----------------------------------------------------------------------------+
|  Inner_Iter|     Min CFL|     Max CFL|      rms[P]|  Cauchy[CD]|          CD|
+-----------------------------------------------------------------------------+
|        7810|  4.0783e+01|  4.0783e+01|   -9.978871|  1.4227e-06|    0.034683|
|        7820|  4.0783e+01|  4.0783e+01|   -9.982107|  1.4121e-06|    0.034681|
|        7830|  4.0783e+01|  4.0783e+01|   -9.985350|  1.4015e-06|    0.034680|
|        7840|  4.0783e+01|  4.0783e+01|   -9.988604|  1.3911e-06|    0.034679|
|        7850|  4.0783e+01|  4.0783e+01|   -9.991874|  1.3807e-06|    0.034677|
|        7860|  4.0783e+01|  4.0783e+01|   -9.995154|  1.3704e-06|    0.034676|
|        7870|  4.0783e+01|  4.0783e+01|   -9.998432|  1.3602e-06|    0.034675|
|        7880|  4.0783e+01|  4.0783e+01|  -10.001706|  1.3500e-06|    0.034674|
|        7890|  4.0783e+01|  4.0783e+01|  -10.004982|  1.3399e-06|    0.034673|
|        7900|  4.0783e+01|  4.0783e+01|  -10.008262|  1.3298e-06|    0.034671|
|        7910|  4.0783e+01|  4.0783e+01|  -10.011550|  1.3199e-06|    0.034670|
|        7920|  4.0783e+01|  4.0783e+01|  -10.014843|  1.3099e-06|    0.034669|
|        7930|  4.0783e+01|  4.0783e+01|  -10.018142|  1.3001e-06|    0.034668|
|        7940|  4.0783e+01|  4.0783e+01|  -10.021445|  1.2903e-06|    0.034667|
|        7950|  4.0783e+01|  4.0783e+01|  -10.024745|  1.2806e-06|    0.034665|
|        7960|  4.0783e+01|  4.0783e+01|  -10.028036|  1.2709e-06|    0.034664|
|        7970|  4.0783e+01|  4.0783e+01|  -10.031322|  1.2613e-06|    0.034663|
|        7980|  4.0783e+01|  4.0783e+01|  -10.034611|  1.2518e-06|    0.034662|
|        7990|  4.0783e+01|  4.0783e+01|  -10.037907|  1.2423e-06|    0.034661|
|        8000|  4.0783e+01|  4.0783e+01|  -10.041201|  1.2329e-06|    0.034660|
+-----------------------------------------------------------------------+
|        File Writing Summary       |              Filename             |
+-----------------------------------------------------------------------+
|SU2 binary restart                 |restart_flow_G4.dat                |
|Paraview                           |flow_G4.vtu                        |
|Paraview surface                   |surface_flow_G4.vtu                |
+-----------------------------------------------------------------------+
+-----------------------------------------------------------------------------+
|  Inner_Iter|     Min CFL|     Max CFL|      rms[P]|  Cauchy[CD]|          CD|
+-----------------------------------------------------------------------------+
|        8010|  4.0783e+01|  4.0783e+01|  -10.044486|  1.2236e-06|    0.034659|
|        8020|  4.0783e+01|  4.0783e+01|  -10.047760|  1.2143e-06|    0.034657|
|        8030|  4.0783e+01|  4.0783e+01|  -10.051031|  1.2050e-06|    0.034656|
|        8040|  4.0783e+01|  4.0783e+01|  -10.054301|  1.1958e-06|    0.034655|
|        8050|  4.0783e+01|  4.0783e+01|  -10.057572|  1.1867e-06|    0.034654|
|        8060|  4.0783e+01|  4.0783e+01|  -10.060846|  1.1777e-06|    0.034653|
|        8070|  4.0783e+01|  4.0783e+01|  -10.064120|  1.1687e-06|    0.034652|
|        8080|  4.0783e+01|  4.0783e+01|  -10.067395|  1.1598e-06|    0.034651|
|        8090|  4.0783e+01|  4.0783e+01|  -10.070671|  1.1509e-06|    0.034650|
|        8100|  4.0783e+01|  4.0783e+01|  -10.073945|  1.1421e-06|    0.034649|
|        8110|  4.0783e+01|  4.0783e+01|  -10.077213|  1.1334e-06|    0.034648|
|        8120|  4.0783e+01|  4.0783e+01|  -10.080473|  1.1247e-06|    0.034647|
|        8130|  4.0783e+01|  4.0783e+01|  -10.083724|  1.1161e-06|    0.034646|
|        8140|  4.0783e+01|  4.0783e+01|  -10.086969|  1.1076e-06|    0.034645|
|        8150|  4.0783e+01|  4.0783e+01|  -10.090215|  1.0992e-06|    0.034644|
|        8160|  4.0783e+01|  4.0783e+01|  -10.093465|  1.0908e-06|    0.034643|
|        8170|  4.0783e+01|  4.0783e+01|  -10.096719|  1.0825e-06|    0.034642|
|        8180|  4.0783e+01|  4.0783e+01|  -10.099973|  1.0742e-06|    0.034641|
|        8190|  4.0783e+01|  4.0783e+01|  -10.103219|  1.0661e-06|    0.034640|
|        8200|  4.0783e+01|  4.0783e+01|  -10.106459|  1.0580e-06|    0.034639|
+-----------------------------------------------------------------------+
|        File Writing Summary       |              Filename             |
+-----------------------------------------------------------------------+
|SU2 binary restart                 |restart_flow_G4.dat                |
|Paraview                           |flow_G4.vtu                        |
|Paraview surface                   |surface_flow_G4.vtu                |
+-----------------------------------------------------------------------+
+-----------------------------------------------------------------------------+
|  Inner_Iter|     Min CFL|     Max CFL|      rms[P]|  Cauchy[CD]|          CD|
+-----------------------------------------------------------------------------+
|        8210|  4.0783e+01|  4.0783e+01|  -10.109698|  1.0499e-06|    0.034638|
|        8220|  4.0783e+01|  4.0783e+01|  -10.112945|  1.0420e-06|    0.034637|
|        8230|  4.0783e+01|  4.0783e+01|  -10.116198|  1.0341e-06|    0.034636|
|        8240|  4.0783e+01|  4.0783e+01|  -10.119456|  1.0262e-06|    0.034635|
|        8250|  4.0783e+01|  4.0783e+01|  -10.122714|  1.0185e-06|    0.034634|
|        8260|  4.0783e+01|  4.0783e+01|  -10.125972|  1.0107e-06|    0.034633|
|        8270|  4.0783e+01|  4.0783e+01|  -10.129242|  1.0031e-06|    0.034632|
|        8275|  4.0783e+01|  4.0783e+01|  -10.130875|  9.9927e-07|    0.034632|

----------------------------- Solver Exit -------------------------------
All convergence criteria satisfied.
+-----------------------------------------------------------------------+
|      Convergence Field     |     Value    |   Criterion  |  Converged |
+-----------------------------------------------------------------------+
|                      rms[P]|      -10.1309|          < -9|         Yes|
|                  Cauchy[CD]|   9.99266e-07|       < 1e-06|         Yes|
+-----------------------------------------------------------------------+
-------------------------------------------------------------------------
+-----------------------------------------------------------------------+
|        File Writing Summary       |              Filename             |
+-----------------------------------------------------------------------+
|SU2 binary restart                 |restart_flow_G4.dat                |
|Paraview                           |flow_G4.vtu                        |
|Paraview surface                   |surface_flow_G4.vtu                |
+-----------------------------------------------------------------------+

------------------------- Solver Postprocessing -------------------------
Deleted CNumerics container.
Deleted CIntegration container.
Deleted CSolver container.
Deleted CIteration container.
Deleted CInterface container.
Deleted CGeometry container.
Deleted CFreeFormDefBox class.
Deleted CSurfaceMovement class.
Deleted CVolumetricMovement class.
Deleted CConfig container.
Deleted nInst container.
Deleted COutput class.
-------------------------------------------------------------------------

------------------------- Exit Success (SU2_CFD) ------------------------

