
-------------------------------------------------------------------------
|    ___ _   _ ___                                                      |
|   / __| | | |_  )   Release 7.4.0 "Blackbird"                         |
|   \__ \ |_| |/ /                                                      |
|   |___/\___//___|   Suite (Computational Fluid Dynamics Code)         |
|                                                                       |
-------------------------------------------------------------------------
| SU2 Project Website: https://su2code.github.io                        |
|                                                                       |
| The SU2 Project is maintained by the SU2 Foundation                   |
| (http://su2foundation.org)                                            |
-------------------------------------------------------------------------
| Copyright 2012-2022, SU2 Contributors                                 |
|                                                                       |
| SU2 is free software; you can redistribute it and/or                  |
| modify it under the terms of the GNU Lesser General Public            |
| License as published by the Free Software Foundation; either          |
| version 2.1 of the License, or (at your option) any later version.    |
|                                                                       |
| SU2 is distributed in the hope that it will be useful,                |
| but WITHOUT ANY WARRANTY; without even the implied warranty of        |
| MERCHANTABILITY or FITNESS FOR A PARTICULAR PURPOSE. See the GNU      |
| Lesser General Public License for more details.                       |
|                                                                       |
| You should have received a copy of the GNU Lesser General Public      |
| License along with SU2. If not, see <http://www.gnu.org/licenses/>.   |
-------------------------------------------------------------------------

Parsing config file for zone 0

----------------- Physical Case Definition ( Zone 0 ) -------------------
Incompressible RANS equations.
Turbulence model: Spalart-Allmaras-noft2
Hybrid RANS/LES: No Hybrid RANS/LES
No restart solution, use the values at infinity (freestream).
Non-Dimensional simulation using intialization values.
The reference area is 1 m^2.
The semi-span will be computed using the max y(3D) value.
The reference length is 1.00898 m.
Reference origin for moment evaluation is (-0.756, 0, 0).
Surface(s) where the force coefficients are evaluated: AIRFOIL.

Surface(s) plotted in the output file: AIRFOIL.
Input mesh file name: ../meshG3/meshG3.su2

--------------- Space Numerical Integration ( Zone 0 ) ------------------
Flux difference splitting (FDS) upwind scheme for the flow inviscid terms.
First order integration in space.
Average of gradients with correction (viscous flow terms).
Average of gradients with correction (viscous turbulence terms).
Gradient for upwind reconstruction: unweighted Least-Squares.
Gradient for viscous and source terms: Green-Gauss.

--------------- Time Numerical Integration  ( Zone 0 ) ------------------
Local time stepping (steady state simulation).
Euler implicit method for the flow equations.
FGMRES is used for solving the linear system.
Using a ILU(0) preconditioning.
Convergence criteria of the linear solver: 1e-06.
Max number of linear iterations: 10.
CFL adaptation. Factor down: 0.1, factor up: 1.2,
                lower limit: 1, upper limit: 1000,
                acceptable linear residual: 0.001.
Courant-Friedrichs-Lewy number:        2
Euler implicit time integration for the turbulence model.

------------------ Convergence Criteria  ( Zone 0 ) ---------------------
Maximum number of solver subiterations: 9999.
Begin convergence monitoring at iteration 10.
Residual minimum value: 1e-9.
Cauchy series min. value: 1e-06.
Number of Cauchy elements: 250.
Begin windowed time average at iteration 0.

-------------------- Output Information ( Zone 0 ) ----------------------
File writing frequency: 
+------------------------------------+
|                     File| Frequency|
+------------------------------------+
|                  RESTART|       200|
|                 PARAVIEW|       200|
|         SURFACE_PARAVIEW|       200|
+------------------------------------+
Writing the convergence history file every 1 inner iterations.
Writing the screen convergence history every 10 inner iterations.
The tabular file format is CSV (.csv).
Convergence history file name: history_G3.
Forces breakdown file name: forces_breakdown.dat.
Surface file name: surface_flow_G3.
Volume file name: flow_G3.
Restart file name: restart_flow_G3.dat.

------------- Config File Boundary Information ( Zone 0 ) ---------------
+-----------------------------------------------------------------------+
|                        Marker Type|                        Marker Name|
+-----------------------------------------------------------------------+
|                          Far-field|                           FARFIELD|
+-----------------------------------------------------------------------+
|                     Heat flux wall|                            AIRFOIL|
+-----------------------------------------------------------------------+

-------------------- Output Preprocessing ( Zone 0 ) --------------------

WARNING: SURFACE_PRESSURE_DROP can only be computed for at least 2 surfaces (outlet, inlet, ...)

Screen output fields: INNER_ITER, MIN_CFL, MAX_CFL, RMS_PRESSURE, CAUCHY_DRAG, DRAG
History output group(s): INNER_ITER, MIN_CFL, MAX_CFL, RMS_RES, LIFT, DRAG, MOMENT_Z, CAUCHY
Convergence field(s): RMS_PRESSURE, DRAG
Warning: No (valid) fields chosen for time convergence monitoring. Time convergence monitoring inactive.
Volume output fields: COORDINATES, SOLUTION, PRIMITIVE, RESIDUAL, MESH_QUALITY

------------------- Geometry Preprocessing ( Zone 0 ) -------------------
Two dimensional problem.
171642 grid points before partitioning.
170748 volume elements before partitioning.
2 surface markers.
498 boundary elements in index 0 (Marker = AIRFOIL).
1290 boundary elements in index 1 (Marker = FARFIELD).
Executing the partitioning functions.
Building the graph adjacency structure.
Calling ParMETIS... graph partitioning complete (4454 edge cuts).
Distributing ParMETIS coloring.
Rebalancing vertices.
Rebalancing volume element connectivity.
Rebalancing markers and surface elements.
180610 vertices including ghost points. 
175209 interior elements including halo cells. 
175209 quadrilaterals.
Establishing MPI communication patterns.
Setting point connectivity.
Renumbering points (Reverse Cuthill McKee Ordering).
Recomputing point connectivity.
Setting element connectivity.
Checking the numerical grid orientation.
All volume elements are correctly orientend.
There has been a re-orientation of 903 LINE surface elements.
Identifying edges and vertices.
Setting the control volume structure.
Area of the computational grid: 102995.
Searching for the closest normal neighbors to the surfaces.
Storing a mapping from global to local point index.
Compute the surface curvature.
Max K: 4099.33. Mean K: 3.39352. Standard deviation K: 97.1864.
Checking for periodicity.
Computing mesh quality statistics for the dual control volumes.
+--------------------------------------------------------------+
|           Mesh Quality Metric|        Minimum|        Maximum|
+--------------------------------------------------------------+
|    Orthogonality Angle (deg.)|        72.0641|             90|
|     CV Face Area Aspect Ratio|        1.00012|         425426|
|           CV Sub-Volume Ratio|              1|        2.81252|
+--------------------------------------------------------------+
Finding max control volume width.
Communicating number of neighbors.
Wetted area = 2.05956 m.
Area projection in the x-plane = 0.121113 m, y-plane = 1.00873 m.
Max. coordinate in the x-direction = 1.00898 m, y-direction = 0.0759836 m.
Min. coordinate in the x-direction = 3.20676e-06 m, y-direction = -0.0451322 m.
Computing wall distances.

-------------------- Solver Preprocessing ( Zone 0 ) --------------------
Incompressible flow: rho_ref, vel_ref, and temp_ref
are based on the initial values, p_ref = rho_ref*vel_ref^2.
Force coefficients computed using initial values.
The reference area for force coeffs. is 1 m^2.
The reference length for force coeffs. is 1.00898 m.
The pressure is decomposed into thermodynamic and dynamic components.
The initial value of the dynamic pressure is 0.
Mach number: 0.0276747, computed using the Bulk modulus.
For external flows, the initial state is imposed at the far-field.
Angle of attack (deg): 14, computed using the initial velocity.
Side slip angle (deg): 0, computed using the initial velocity.
Reynolds number per meter: 594999, computed using initial values.
Reynolds number is a byproduct of inputs only (not used internally).
SI units only. The grid should be dimensional (meters).
No energy equation.

-- Models:
+------------------------------------------------------------------------------+
|          Viscosity Model|        Conductivity Model|              Fluid Model|
+------------------------------------------------------------------------------+
|       CONSTANT_VISCOSITY|          CONSTANT_PRANDTL|         CONSTANT_DENSITY|
+------------------------------------------------------------------------------+
-- Fluid properties:
+------------------------------------------------------------------------------+
|                  Name|    Dim. value|    Ref. value|      Unit|Non-dim. value|
+------------------------------------------------------------------------------+
|             Viscosity|      1.92e-05|        11.424|   N.s/m^2|   1.68067e-06|
+------------------------------------------------------------------------------+
|        Prandtl (Lam.)|             -|             -|         -|          0.72|
|       Prandtl (Turb.)|             -|             -|         -|           0.9|
+------------------------------------------------------------------------------+
|          Bulk Modulus|        142000|             1|        Pa|        142000|
+------------------------------------------------------------------------------+
-- Initial and free-stream conditions:
+------------------------------------------------------------------------------+
|                  Name|    Dim. value|    Ref. value|      Unit|Non-dim. value|
+------------------------------------------------------------------------------+
|      Dynamic Pressure|             0|       108.756|        Pa|             0|
|        Total Pressure|       54.3781|       108.756|        Pa|           0.5|
|               Density|           1.2|           1.2|    kg/m^3|             1|
|            Velocity-X|        9.2372|       9.51999|       m/s|      0.970296|
|            Velocity-Y|        2.3031|       9.51999|       m/s|      0.241923|
|    Velocity Magnitude|       9.51999|       9.51999|       m/s|             1|
+------------------------------------------------------------------------------+
|             Viscosity|      1.92e-05|        11.424|   N.s/m^2|   1.68067e-06|
|          Conductivity|             -|       3.59312|   W/m^2.K|             -|
|     Turb. Kin. Energy|       1.35945|       90.6301|   m^2/s^2|         0.015|
|     Spec. Dissipation|       8496.58|       9.51999|       1/s|       892.499|
+------------------------------------------------------------------------------+
|           Mach Number|             -|             -|         -|     0.0276747|
|       Reynolds Number|             -|             -|         -|        594999|
+------------------------------------------------------------------------------+
Initialize Jacobian structure (Navier-Stokes). MG level: 0.
Initialize Jacobian structure (SA model).

------------------- Numerics Preprocessing ( Zone 0 ) -------------------

----------------- Integration Preprocessing ( Zone 0 ) ------------------

------------------- Iteration Preprocessing ( Zone 0 ) ------------------
Euler/Navier-Stokes/RANS fluid iteration.

------------------------------ Begin Solver -----------------------------

Simulation Run using the Single-zone Driver
+-----------------------------------------------------------------------------+
|  Inner_Iter|     Min CFL|     Max CFL|      rms[P]|  Cauchy[CD]|          CD|
+-----------------------------------------------------------------------------+
|           0|  2.4000e+00|  2.4000e+00|   -4.146194|  1.0000e+00|    0.663847|
|          10|  1.4860e+01|  1.4860e+01|   -4.874869|  1.2066e-03|    0.882989|
|          20|  7.6675e+00|  7.6675e+00|   -4.982188|  1.3171e-03|    0.858989|
|          30|  3.9563e+00|  3.9563e+00|   -4.903093|  1.7706e-03|    0.767728|
|          40|  2.4496e+01|  2.4496e+01|   -4.868170|  2.2948e-03|    0.674211|
|          50|  1.2639e+01|  1.2639e+01|   -4.849503|  3.1124e-03|    0.551420|
|          60|  6.5217e+00|  6.5217e+00|   -4.843051|  4.4420e-03|    0.398569|
|          70|  4.0381e+01|  4.0381e+01|   -4.848351|  6.2162e-03|    0.259018|
|          80|  2.0836e+01|  2.0836e+01|   -4.896868|  7.6406e-03|    0.183235|
|          90|  1.0751e+01|  1.0751e+01|   -4.938614|  9.4312e-03|    0.118841|
|         100|  5.5471e+00|  5.5471e+00|   -4.961032|  1.0677e-02|    0.086387|
|         110|  3.4346e+01|  3.4346e+01|   -4.961100|  1.1726e-02|    0.060161|
|         120|  1.7722e+01|  1.7722e+01|   -4.968048|  1.3005e-02|    0.028164|
|         130|  9.1441e+00|  9.1441e+00|   -4.966484|  1.4431e-02|   -0.007479|
|         140|  3.9318e+01|  3.9318e+01|   -4.969696|  1.5412e-02|    0.008369|
|         150|  3.9318e+01|  3.9318e+01|   -5.005641|  2.1417e-02|    0.188785|
|         160|  1.4088e+01|  1.4088e+01|   -5.026296|  2.2878e-02|    0.275604|
|         170|  7.2693e+00|  7.2693e+00|   -5.043187|  2.3266e-02|    0.293613|
|         180|  4.5010e+01|  4.5010e+01|   -5.029902|  2.3918e-02|    0.250059|
|         190|  5.4011e+01|  5.4011e+01|   -5.038015|  2.6813e-02|    0.124361|
|         200|  2.7869e+01|  2.7869e+01|   -5.059894|  2.7137e-02|    0.114931|
+-----------------------------------------------------------------------+
|        File Writing Summary       |              Filename             |
+-----------------------------------------------------------------------+
|SU2 binary restart                 |restart_flow_G3.dat                |
|Paraview                           |flow_G3.vtu                        |
|Paraview surface                   |surface_flow_G3.vtu                |
+-----------------------------------------------------------------------+
+-----------------------------------------------------------------------------+
|  Inner_Iter|     Min CFL|     Max CFL|      rms[P]|  Cauchy[CD]|          CD|
+-----------------------------------------------------------------------------+
|         210|  1.4380e+01|  1.4380e+01|   -5.084659|  2.7611e-02|    0.129538|
|         220|  7.4196e+00|  7.4196e+00|   -5.097936|  2.8423e-02|    0.159123|
|         230|  4.5940e+01|  4.5940e+01|   -5.097125|  2.8775e-02|    0.173817|
|         240|  2.3704e+01|  2.3704e+01|   -5.087384|  2.8890e-02|    0.178929|
|         250|  4.9153e+01|  4.9153e+01|   -5.124036|  2.8940e-02|    0.181155|
|         260|  4.9153e+01|  4.9153e+01|   -5.189473|  2.8065e-02|    0.166841|
|         270|  1.2231e+01|  1.2231e+01|   -5.176249|  2.8525e-02|    0.144851|
|         280|  5.2590e+01|  5.2590e+01|   -5.192896|  2.8309e-02|    0.136533|
|         290|  1.8844e+01|  1.8844e+01|   -5.291802|  2.7985e-02|    0.143566|
|         300|  9.7231e+00|  9.7231e+00|   -5.334939|  2.7476e-02|    0.155159|
|         310|  6.0203e+01|  6.0203e+01|   -5.319990|  2.6354e-02|    0.163435|
|         320|  3.1063e+01|  3.1063e+01|   -5.323118|  2.4629e-02|    0.165450|
|         330|  5.3677e+01|  5.3677e+01|   -5.452093|  2.3482e-02|    0.154406|
|         340|  2.7696e+01|  2.7696e+01|   -5.504130|  2.1851e-02|    0.148388|
|         350|  1.4291e+01|  1.4291e+01|   -5.526990|  2.0807e-02|    0.141123|
|         360|  7.3737e+00|  7.3737e+00|   -5.546064|  1.9847e-02|    0.138023|
|         370|  4.5656e+01|  4.5656e+01|   -5.573464|  1.8598e-02|    0.139097|
|         380|  1.6359e+01|  1.6359e+01|   -5.683812|  1.7301e-02|    0.143648|
|         390|  7.0342e+00|  7.0342e+00|   -5.726610|  1.6425e-02|    0.147444|
|         400|  4.3554e+01|  4.3554e+01|   -5.713578|  1.0436e-02|    0.148061|
+-----------------------------------------------------------------------+
|        File Writing Summary       |              Filename             |
+-----------------------------------------------------------------------+
|SU2 binary restart                 |restart_flow_G3.dat                |
|Paraview                           |flow_G3.vtu                        |
|Paraview surface                   |surface_flow_G3.vtu                |
+-----------------------------------------------------------------------+
+-----------------------------------------------------------------------------+
|  Inner_Iter|     Min CFL|     Max CFL|      rms[P]|  Cauchy[CD]|          CD|
+-----------------------------------------------------------------------------+
|         410|  2.2473e+01|  2.2473e+01|   -5.722613|  9.0022e-03|    0.147050|
|         420|  1.1596e+01|  1.1596e+01|   -5.808437|  8.6840e-03|    0.144503|
|         430|  5.9830e+00|  5.9830e+00|   -5.968346|  8.1241e-03|    0.141244|
|         440|  3.7045e+01|  3.7045e+01|   -6.066059|  5.2632e-03|    0.140027|
|         450|  5.3345e+01|  5.3345e+01|   -6.033219|  4.9759e-03|    0.139891|
|         460|  5.3345e+01|  5.3345e+01|   -6.277251|  4.5496e-03|    0.141563|
|         470|  7.6817e+00|  7.6817e+00|   -6.128356|  3.7800e-03|    0.140071|
|         480|  4.7563e+01|  4.7563e+01|   -6.120730|  3.4629e-03|    0.138868|
|         490|  2.4542e+01|  2.4542e+01|   -6.181490|  3.3784e-03|    0.137796|
|         500|  1.2663e+01|  1.2663e+01|   -6.297364|  3.3552e-03|    0.136896|
|         510|  5.4448e+01|  5.4448e+01|   -6.297856|  3.0308e-03|    0.136647|
|         520|  9.4087e+00|  9.4087e+00|   -6.283452|  2.4626e-03|    0.136587|
|         530|  5.8256e+01|  5.8256e+01|   -6.294075|  2.2348e-03|    0.136259|
|         540|  3.0059e+01|  3.0059e+01|   -6.295106|  2.0482e-03|    0.135800|
|         550|  1.5510e+01|  1.5510e+01|   -6.289171|  1.7688e-03|    0.134803|
|         560|  5.5574e+01|  5.5574e+01|   -6.326408|  1.6055e-03|    0.133329|
|         570|  5.5574e+01|  5.5574e+01|   -6.442255|  1.5902e-03|    0.132215|
|         580|  1.9913e+01|  1.9913e+01|   -6.454510|  1.3141e-03|    0.132191|
|         590|  1.0275e+01|  1.0275e+01|   -6.457655|  1.1557e-03|    0.132221|
|         600|  6.3619e+01|  6.3619e+01|   -6.463827|  9.5813e-04|    0.132089|
+-----------------------------------------------------------------------+
|        File Writing Summary       |              Filename             |
+-----------------------------------------------------------------------+
|SU2 binary restart                 |restart_flow_G3.dat                |
|Paraview                           |flow_G3.vtu                        |
|Paraview surface                   |surface_flow_G3.vtu                |
+-----------------------------------------------------------------------+
+-----------------------------------------------------------------------------+
|  Inner_Iter|     Min CFL|     Max CFL|      rms[P]|  Cauchy[CD]|          CD|
+-----------------------------------------------------------------------------+
|         610|  3.2826e+01|  3.2826e+01|   -6.474914|  8.7589e-04|    0.131867|
|         620|  1.6937e+01|  1.6937e+01|   -6.492073|  8.5903e-04|    0.131399|
|         630|  8.7393e+00|  8.7393e+00|   -6.521935|  7.4486e-04|    0.130930|
|         640|  5.4112e+01|  5.4112e+01|   -6.549007|  6.4941e-04|    0.130645|
|         650|  2.7920e+01|  2.7920e+01|   -6.583854|  6.3868e-04|    0.130451|
|         660|  5.7896e+01|  5.7896e+01|   -6.596221|  6.1821e-04|    0.130224|
|         670|  5.7896e+01|  5.7896e+01|   -6.598690|  5.5965e-04|    0.129854|
|         680|  5.7896e+01|  5.7896e+01|   -6.624525|  4.8028e-04|    0.129464|
|         690|  2.0745e+01|  2.0745e+01|   -6.623690|  4.4688e-04|    0.129436|
|         700|  1.0704e+01|  1.0704e+01|   -6.612120|  4.1261e-04|    0.129516|
|         710|  6.6276e+01|  6.6276e+01|   -6.598012|  3.6796e-04|    0.129608|
|         720|  3.4197e+01|  3.4197e+01|   -6.584871|  3.2635e-04|    0.129634|
|         730|  1.7645e+01|  1.7645e+01|   -6.572095|  2.9423e-04|    0.129556|
|         740|  9.1044e+00|  9.1044e+00|   -6.568432|  2.6910e-04|    0.129365|
|         750|  5.6372e+01|  5.6372e+01|   -6.571813|  2.4824e-04|    0.129192|
|         760|  2.9087e+01|  2.9087e+01|   -6.581980|  2.4534e-04|    0.129051|
|         770|  1.5008e+01|  1.5008e+01|   -6.595771|  2.4480e-04|    0.128978|
|         780|  6.4532e+01|  6.4532e+01|   -6.600976|  2.3808e-04|    0.129072|
|         790|  7.7439e+00|  7.7439e+00|   -6.605640|  2.2999e-04|    0.129247|
|         800|  4.7948e+01|  4.7948e+01|   -6.611934|  2.0116e-04|    0.129226|
+-----------------------------------------------------------------------+
|        File Writing Summary       |              Filename             |
+-----------------------------------------------------------------------+
|SU2 binary restart                 |restart_flow_G3.dat                |
|Paraview                           |flow_G3.vtu                        |
|Paraview surface                   |surface_flow_G3.vtu                |
+-----------------------------------------------------------------------+
+-----------------------------------------------------------------------------+
|  Inner_Iter|     Min CFL|     Max CFL|      rms[P]|  Cauchy[CD]|          CD|
+-----------------------------------------------------------------------------+
|         810|  6.9045e+01|  6.9045e+01|   -6.610732|  1.6653e-04|    0.128923|
|         820|  2.0617e+01|  2.0617e+01|   -6.625197|  1.3796e-04|    0.128762|
|         830|  7.3874e+01|  7.3874e+01|   -6.621982|  1.3865e-04|    0.128691|
|         840|  7.3874e+01|  7.3874e+01|   -6.641599|  1.4112e-04|    0.128572|
|         850|  7.3874e+01|  7.3874e+01|   -6.677715|  1.4631e-04|    0.128278|
|         860|  7.3874e+01|  7.3874e+01|   -6.723687|  1.4865e-04|    0.127987|
|         870|  7.3874e+01|  7.3874e+01|   -6.778984|  1.4274e-04|    0.127722|
|         880|  7.3874e+01|  7.3874e+01|   -6.851000|  1.3813e-04|    0.127413|
|         890|  7.3874e+01|  7.3874e+01|   -6.928891|  1.3885e-04|    0.127112|
|         900|  7.3874e+01|  7.3874e+01|   -6.987976|  1.4184e-04|    0.126828|
|         910|  2.6470e+01|  2.6470e+01|   -7.008566|  1.3978e-04|    0.126673|
|         920|  7.9040e+01|  7.9040e+01|   -7.013151|  1.3545e-04|    0.126449|
|         930|  7.9040e+01|  7.9040e+01|   -6.998984|  1.3204e-04|    0.126178|
|         940|  7.9040e+01|  7.9040e+01|   -6.977474|  1.3820e-04|    0.125945|
|         950|  1.3658e+01|  1.3658e+01|   -6.968749|  1.4087e-04|    0.125784|
|         960|  8.4567e+01|  8.4567e+01|   -6.962523|  1.4085e-04|    0.125695|
|         970|  4.3635e+01|  4.3635e+01|   -6.963563|  1.4205e-04|    0.125632|
|         980|  7.5401e+01|  7.5401e+01|   -6.959168|  1.4439e-04|    0.125483|
|         990|  7.5401e+01|  7.5401e+01|   -6.974333|  1.4231e-04|    0.125364|
|        1000|  7.5401e+01|  7.5401e+01|   -7.005821|  1.4009e-04|    0.125266|
+-----------------------------------------------------------------------+
|        File Writing Summary       |              Filename             |
+-----------------------------------------------------------------------+
|SU2 binary restart                 |restart_flow_G3.dat                |
|Paraview                           |flow_G3.vtu                        |
|Paraview surface                   |surface_flow_G3.vtu                |
+-----------------------------------------------------------------------+
+-----------------------------------------------------------------------------+
|  Inner_Iter|     Min CFL|     Max CFL|      rms[P]|  Cauchy[CD]|          CD|
+-----------------------------------------------------------------------------+
|        1010|  7.5401e+01|  7.5401e+01|   -7.053395|  1.3832e-04|    0.125184|
|        1020|  1.0858e+01|  1.0858e+01|   -7.114801|  1.3760e-04|    0.125136|
|        1030|  6.7228e+01|  6.7228e+01|   -7.139447|  1.3516e-04|    0.125122|
|        1040|  3.4688e+01|  3.4688e+01|   -7.172879|  1.3031e-04|    0.125105|
|        1050|  7.1930e+01|  7.1930e+01|   -7.234450|  1.3074e-04|    0.125071|
|        1060|  7.1930e+01|  7.1930e+01|   -7.318716|  1.2177e-04|    0.125058|
|        1070|  7.1930e+01|  7.1930e+01|   -7.378764|  1.1694e-04|    0.125053|
|        1080|  7.1930e+01|  7.1930e+01|   -7.393048|  1.1498e-04|    0.125045|
|        1090|  7.1930e+01|  7.1930e+01|   -7.372735|  1.1139e-04|    0.125047|
|        1100|  7.1930e+01|  7.1930e+01|   -7.346790|  1.0251e-04|    0.125055|
|        1110|  7.1930e+01|  7.1930e+01|   -7.333369|  9.3698e-05|    0.125064|
|        1120|  7.1930e+01|  7.1930e+01|   -7.338687|  8.5763e-05|    0.125075|
|        1130|  7.1930e+01|  7.1930e+01|   -7.363343|  7.6539e-05|    0.125090|
|        1140|  7.1930e+01|  7.1930e+01|   -7.407664|  6.7599e-05|    0.125106|
|        1150|  7.1930e+01|  7.1930e+01|   -7.471616|  5.9260e-05|    0.125125|
|        1160|  2.5774e+01|  2.5774e+01|   -7.518315|  5.4672e-05|    0.125134|
|        1170|  1.3299e+01|  1.3299e+01|   -7.558853|  4.7939e-05|    0.125145|
|        1180|  6.8618e+01|  6.8618e+01|   -7.595165|  3.9640e-05|    0.125154|
|        1190|  9.8810e+00|  9.8810e+00|   -7.682417|  3.2807e-05|    0.125171|
|        1200|  6.1181e+01|  6.1181e+01|   -7.714285|  2.8039e-05|    0.125183|
+-----------------------------------------------------------------------+
|        File Writing Summary       |              Filename             |
+-----------------------------------------------------------------------+
|SU2 binary restart                 |restart_flow_G3.dat                |
|Paraview                           |flow_G3.vtu                        |
|Paraview surface                   |surface_flow_G3.vtu                |
+-----------------------------------------------------------------------+
+-----------------------------------------------------------------------------+
|  Inner_Iter|     Min CFL|     Max CFL|      rms[P]|  Cauchy[CD]|          CD|
+-----------------------------------------------------------------------------+
|        1210|  3.1568e+01|  3.1568e+01|   -7.751968|  2.5564e-05|    0.125194|
|        1220|  6.5459e+01|  6.5459e+01|   -7.804827|  2.4278e-05|    0.125216|
|        1230|  6.5459e+01|  6.5459e+01|   -7.838611|  2.0464e-05|    0.125245|
|        1240|  6.5459e+01|  6.5459e+01|   -7.826478|  1.7706e-05|    0.125278|
|        1250|  7.8551e+00|  7.8551e+00|   -7.793212|  1.5544e-05|    0.125308|
|        1260|  4.8637e+01|  4.8637e+01|   -7.789313|  1.3289e-05|    0.125320|
|        1270|  2.5095e+01|  2.5095e+01|   -7.775751|  1.2207e-05|    0.125333|
|        1280|  6.2446e+01|  6.2446e+01|   -7.753765|  1.2565e-05|    0.125359|
|        1290|  6.2446e+01|  6.2446e+01|   -7.741470|  1.3218e-05|    0.125397|
|        1300|  6.2446e+01|  6.2446e+01|   -7.744682|  1.3480e-05|    0.125439|
|        1310|  6.2446e+01|  6.2446e+01|   -7.761929|  1.4327e-05|    0.125478|
|        1320|  1.5538e+01|  1.5538e+01|   -7.785406|  1.4896e-05|    0.125502|
|        1330|  8.0175e+00|  8.0175e+00|   -7.799629|  1.5327e-05|    0.125523|
|        1340|  4.9642e+01|  4.9642e+01|   -7.817102|  1.5661e-05|    0.125537|
|        1350|  5.9571e+01|  5.9571e+01|   -7.857514|  1.6616e-05|    0.125576|
|        1360|  2.1345e+01|  2.1345e+01|   -7.889990|  1.6931e-05|    0.125594|
|        1370|  1.1014e+01|  1.1014e+01|   -7.916967|  1.7252e-05|    0.125616|
|        1380|  5.6828e+01|  5.6828e+01|   -7.941255|  1.7430e-05|    0.125636|
|        1390|  6.8194e+00|  6.8194e+00|   -7.996643|  1.8041e-05|    0.125671|
|        1400|  4.2224e+01|  4.2224e+01|   -8.016546|  1.7863e-05|    0.125685|
+-----------------------------------------------------------------------+
|        File Writing Summary       |              Filename             |
+-----------------------------------------------------------------------+
|SU2 binary restart                 |restart_flow_G3.dat                |
|Paraview                           |flow_G3.vtu                        |
|Paraview surface                   |surface_flow_G3.vtu                |
+-----------------------------------------------------------------------+
+-----------------------------------------------------------------------------+
|  Inner_Iter|     Min CFL|     Max CFL|      rms[P]|  Cauchy[CD]|          CD|
+-----------------------------------------------------------------------------+
|        1410|  2.1787e+01|  2.1787e+01|   -8.038571|  1.8074e-05|    0.125701|
|        1420|  5.4212e+01|  5.4212e+01|   -8.067584|  1.8679e-05|    0.125731|
|        1430|  5.4212e+01|  5.4212e+01|   -8.103471|  1.9600e-05|    0.125769|
|        1440|  5.4212e+01|  5.4212e+01|   -8.125353|  2.0290e-05|    0.125808|
|        1450|  5.4212e+01|  5.4212e+01|   -8.134857|  2.1136e-05|    0.125846|
|        1460|  1.6188e+01|  1.6188e+01|   -8.141626|  2.1396e-05|    0.125865|
|        1470|  8.3525e+00|  8.3525e+00|   -8.141562|  2.1303e-05|    0.125885|
|        1480|  5.1716e+01|  5.1716e+01|   -8.144005|  2.0846e-05|    0.125900|
|        1490|  5.1716e+01|  5.1716e+01|   -8.141726|  2.0888e-05|    0.125934|
|        1500|  5.1716e+01|  5.1716e+01|   -8.146728|  2.1042e-05|    0.125969|
|        1510|  5.1716e+01|  5.1716e+01|   -8.157739|  2.1815e-05|    0.126005|
|        1520|  5.1716e+01|  5.1716e+01|   -8.173922|  2.2490e-05|    0.126040|
|        1530|  5.1716e+01|  5.1716e+01|   -8.196409|  2.2747e-05|    0.126074|
|        1540|  1.5442e+01|  1.5442e+01|   -8.216672|  2.2066e-05|    0.126091|
|        1550|  7.9679e+00|  7.9679e+00|   -8.230156|  2.1297e-05|    0.126108|
|        1560|  4.9335e+01|  4.9335e+01|   -8.242182|  2.0452e-05|    0.126122|
|        1570|  4.9335e+01|  4.9335e+01|   -8.269584|  2.0694e-05|    0.126152|
|        1580|  7.1043e+00|  7.1043e+00|   -8.303976|  2.0818e-05|    0.126178|
|        1590|  4.3988e+01|  4.3988e+01|   -8.318454|  2.0766e-05|    0.126191|
|        1600|  2.2697e+01|  2.2697e+01|   -8.333772|  1.9905e-05|    0.126202|
+-----------------------------------------------------------------------+
|        File Writing Summary       |              Filename             |
+-----------------------------------------------------------------------+
|SU2 binary restart                 |restart_flow_G3.dat                |
|Paraview                           |flow_G3.vtu                        |
|Paraview surface                   |surface_flow_G3.vtu                |
+-----------------------------------------------------------------------+
+-----------------------------------------------------------------------------+
|  Inner_Iter|     Min CFL|     Max CFL|      rms[P]|  Cauchy[CD]|          CD|
+-----------------------------------------------------------------------------+
|        1610|  4.7064e+01|  4.7064e+01|   -8.356272|  2.0101e-05|    0.126227|
|        1620|  4.7064e+01|  4.7064e+01|   -8.387493|  2.0326e-05|    0.126256|
|        1630|  8.1327e+00|  8.1327e+00|   -8.413313|  2.0351e-05|    0.126277|
|        1640|  5.0355e+01|  5.0355e+01|   -8.424126|  1.9649e-05|    0.126290|
|        1650|  2.5982e+01|  2.5982e+01|   -8.432717|  1.9520e-05|    0.126300|
|        1660|  4.4897e+01|  4.4897e+01|   -8.437341|  1.9764e-05|    0.126324|
|        1670|  4.4897e+01|  4.4897e+01|   -8.442491|  1.9660e-05|    0.126350|
|        1680|  4.4897e+01|  4.4897e+01|   -8.444080|  1.9277e-05|    0.126377|
|        1690|  4.4897e+01|  4.4897e+01|   -8.441841|  1.8876e-05|    0.126403|
|        1700|  4.4897e+01|  4.4897e+01|   -8.435657|  1.8501e-05|    0.126430|
|        1710|  4.4897e+01|  4.4897e+01|   -8.430509|  1.8719e-05|    0.126456|
|        1720|  4.4897e+01|  4.4897e+01|   -8.427567|  1.8906e-05|    0.126481|
|        1730|  4.4897e+01|  4.4897e+01|   -8.425715|  1.9245e-05|    0.126507|
|        1740|  4.4897e+01|  4.4897e+01|   -8.425769|  1.8973e-05|    0.126533|
|        1750|  4.4897e+00|  4.4897e+00|   -8.429203|  1.8647e-05|    0.126558|
|        1760|  2.7799e+01|  2.7799e+01|   -8.436089|  1.7726e-05|    0.126565|
|        1770|  1.4344e+01|  1.4344e+01|   -8.437669|  1.6971e-05|    0.126576|
|        1780|  4.2830e+01|  4.2830e+01|   -8.437833|  1.6445e-05|    0.126593|
|        1790|  4.2830e+01|  4.2830e+01|   -8.443842|  1.6657e-05|    0.126617|
|        1800|  4.2830e+01|  4.2830e+01|   -8.451081|  1.6856e-05|    0.126641|
+-----------------------------------------------------------------------+
|        File Writing Summary       |              Filename             |
+-----------------------------------------------------------------------+
|SU2 binary restart                 |restart_flow_G3.dat                |
|Paraview                           |flow_G3.vtu                        |
|Paraview surface                   |surface_flow_G3.vtu                |
+-----------------------------------------------------------------------+
+-----------------------------------------------------------------------------+
|  Inner_Iter|     Min CFL|     Max CFL|      rms[P]|  Cauchy[CD]|          CD|
+-----------------------------------------------------------------------------+
|        1810|  4.2830e+01|  4.2830e+01|   -8.460845|  1.7191e-05|    0.126665|
|        1820|  4.2830e+01|  4.2830e+01|   -8.470485|  1.6974e-05|    0.126689|
|        1830|  1.2789e+01|  1.2789e+01|   -8.479094|  1.6533e-05|    0.126701|
|        1840|  6.5989e+00|  6.5989e+00|   -8.483718|  1.6538e-05|    0.126713|
|        1850|  4.0858e+01|  4.0858e+01|   -8.488490|  1.6470e-05|    0.126723|
|        1860|  4.0858e+01|  4.0858e+01|   -8.493135|  1.6369e-05|    0.126744|
|        1870|  4.0858e+01|  4.0858e+01|   -8.501934|  1.6155e-05|    0.126767|
|        1880|  4.0858e+01|  4.0858e+01|   -8.510528|  1.6194e-05|    0.126789|
|        1890|  4.0858e+01|  4.0858e+01|   -8.519496|  1.6484e-05|    0.126812|
|        1900|  4.0858e+01|  4.0858e+01|   -8.527284|  1.6899e-05|    0.126834|
|        1910|  4.0858e+01|  4.0858e+01|   -8.534952|  1.6834e-05|    0.126856|
|        1920|  4.0858e+01|  4.0858e+01|   -8.542435|  1.6676e-05|    0.126878|
|        1930|  4.0858e+01|  4.0858e+01|   -8.549698|  1.6531e-05|    0.126900|
|        1940|  4.0858e+01|  4.0858e+01|   -8.557280|  1.6388e-05|    0.126922|
|        1950|  4.0858e+01|  4.0858e+01|   -8.565046|  1.6239e-05|    0.126944|
|        1960|  4.0858e+01|  4.0858e+01|   -8.572612|  1.6100e-05|    0.126966|
|        1970|  4.0858e+01|  4.0858e+01|   -8.580358|  1.5969e-05|    0.126987|
|        1980|  4.0858e+01|  4.0858e+01|   -8.588777|  1.5837e-05|    0.127009|
|        1990|  4.0858e+01|  4.0858e+01|   -8.597520|  1.5702e-05|    0.127030|
|        2000|  4.0858e+01|  4.0858e+01|   -8.606182|  1.5568e-05|    0.127052|
+-----------------------------------------------------------------------+
|        File Writing Summary       |              Filename             |
+-----------------------------------------------------------------------+
|SU2 binary restart                 |restart_flow_G3.dat                |
|Paraview                           |flow_G3.vtu                        |
|Paraview surface                   |surface_flow_G3.vtu                |
+-----------------------------------------------------------------------+
+-----------------------------------------------------------------------------+
|  Inner_Iter|     Min CFL|     Max CFL|      rms[P]|  Cauchy[CD]|          CD|
+-----------------------------------------------------------------------------+
|        2010|  4.0858e+01|  4.0858e+01|   -8.614637|  1.6019e-05|    0.127073|
|        2020|  4.0858e+01|  4.0858e+01|   -8.622845|  1.6328e-05|    0.127094|
|        2030|  4.0858e+01|  4.0858e+01|   -8.630938|  1.6445e-05|    0.127115|
|        2040|  4.0858e+01|  4.0858e+01|   -8.639053|  1.6359e-05|    0.127136|
|        2050|  4.0858e+01|  4.0858e+01|   -8.646992|  1.6257e-05|    0.127157|
|        2060|  1.4640e+01|  1.4640e+01|   -8.654761|  1.5778e-05|    0.127166|
|        2070|  7.5541e+00|  7.5541e+00|   -8.658318|  1.5353e-05|    0.127176|
|        2080|  4.6773e+01|  4.6773e+01|   -8.661002|  1.5286e-05|    0.127186|
|        2090|  2.4134e+01|  2.4134e+01|   -8.664459|  1.5114e-05|    0.127193|
|        2100|  1.2453e+01|  1.2453e+01|   -8.666894|  1.5088e-05|    0.127202|
|        2110|  6.4252e+00|  6.4252e+00|   -8.668263|  1.4742e-05|    0.127212|
|        2120|  3.9783e+01|  3.9783e+01|   -8.671774|  1.4299e-05|    0.127221|
|        2130|  3.9783e+01|  3.9783e+01|   -8.672438|  1.4197e-05|    0.127240|
|        2140|  3.9783e+01|  3.9783e+01|   -8.678507|  1.4108e-05|    0.127260|
|        2150|  3.9783e+01|  3.9783e+01|   -8.683878|  1.4025e-05|    0.127280|
|        2160|  3.9783e+01|  3.9783e+01|   -8.688827|  1.3950e-05|    0.127299|
|        2170|  3.9783e+01|  3.9783e+01|   -8.692988|  1.3874e-05|    0.127319|
|        2180|  3.9783e+01|  3.9783e+01|   -8.697052|  1.3785e-05|    0.127338|
|        2190|  3.9783e+01|  3.9783e+01|   -8.701258|  1.3689e-05|    0.127357|
|        2200|  3.9783e+01|  3.9783e+01|   -8.705636|  1.3601e-05|    0.127376|
+-----------------------------------------------------------------------+
|        File Writing Summary       |              Filename             |
+-----------------------------------------------------------------------+
|SU2 binary restart                 |restart_flow_G3.dat                |
|Paraview                           |flow_G3.vtu                        |
|Paraview surface                   |surface_flow_G3.vtu                |
+-----------------------------------------------------------------------+
+-----------------------------------------------------------------------------+
|  Inner_Iter|     Min CFL|     Max CFL|      rms[P]|  Cauchy[CD]|          CD|
+-----------------------------------------------------------------------------+
|        2210|  3.9783e+01|  3.9783e+01|   -8.710450|  1.3520e-05|    0.127396|
|        2220|  3.9783e+01|  3.9783e+01|   -8.715427|  1.3437e-05|    0.127415|
|        2230|  3.9783e+01|  3.9783e+01|   -8.720288|  1.3350e-05|    0.127433|
|        2240|  3.9783e+01|  3.9783e+01|   -8.725018|  1.3260e-05|    0.127452|
|        2250|  3.9783e+01|  3.9783e+01|   -8.729982|  1.3172e-05|    0.127471|
|        2260|  3.9783e+01|  3.9783e+01|   -8.735423|  1.3086e-05|    0.127489|
|        2270|  3.9783e+01|  3.9783e+01|   -8.741139|  1.3001e-05|    0.127508|
|        2280|  3.9783e+01|  3.9783e+01|   -8.746805|  1.2914e-05|    0.127526|
|        2290|  3.9783e+01|  3.9783e+01|   -8.752388|  1.2825e-05|    0.127544|
|        2300|  3.9783e+01|  3.9783e+01|   -8.758163|  1.2735e-05|    0.127562|
|        2310|  3.9783e+01|  3.9783e+01|   -8.764294|  1.3017e-05|    0.127580|
|        2320|  3.9783e+01|  3.9783e+01|   -8.770598|  1.3242e-05|    0.127598|
|        2330|  3.9783e+01|  3.9783e+01|   -8.776777|  1.3488e-05|    0.127616|
|        2340|  3.9783e+01|  3.9783e+01|   -8.782740|  1.3815e-05|    0.127633|
|        2350|  3.9783e+01|  3.9783e+01|   -8.788633|  1.4094e-05|    0.127651|
|        2360|  3.9783e+01|  3.9783e+01|   -8.795967|  1.4307e-05|    0.127668|
|        2370|  3.9783e+01|  3.9783e+01|   -8.802653|  1.4595e-05|    0.127686|
|        2380|  3.9783e+01|  3.9783e+01|   -8.808963|  1.4528e-05|    0.127703|
|        2390|  3.9783e+01|  3.9783e+01|   -8.814728|  1.4445e-05|    0.127720|
|        2400|  3.9783e+01|  3.9783e+01|   -8.820189|  1.4356e-05|    0.127737|
+-----------------------------------------------------------------------+
|        File Writing Summary       |              Filename             |
+-----------------------------------------------------------------------+
|SU2 binary restart                 |restart_flow_G3.dat                |
|Paraview                           |flow_G3.vtu                        |
|Paraview surface                   |surface_flow_G3.vtu                |
+-----------------------------------------------------------------------+
+-----------------------------------------------------------------------------+
|  Inner_Iter|     Min CFL|     Max CFL|      rms[P]|  Cauchy[CD]|          CD|
+-----------------------------------------------------------------------------+
|        2410|  3.9783e+01|  3.9783e+01|   -8.825848|  1.4266e-05|    0.127754|
|        2420|  3.9783e+01|  3.9783e+01|   -8.831883|  1.4182e-05|    0.127771|
|        2430|  3.9783e+01|  3.9783e+01|   -8.838090|  1.4104e-05|    0.127788|
|        2440|  3.9783e+01|  3.9783e+01|   -8.844203|  1.4024e-05|    0.127804|
|        2450|  3.9783e+01|  3.9783e+01|   -8.850053|  1.3938e-05|    0.127821|
|        2460|  3.9783e+01|  3.9783e+01|   -8.855693|  1.3848e-05|    0.127837|
|        2470|  3.9783e+01|  3.9783e+01|   -8.861261|  1.3760e-05|    0.127854|
|        2480|  3.9783e+01|  3.9783e+01|   -8.866860|  1.3675e-05|    0.127870|
|        2490|  3.9783e+01|  3.9783e+01|   -8.872492|  1.3589e-05|    0.127886|
|        2500|  3.9783e+01|  3.9783e+01|   -8.878093|  1.3501e-05|    0.127902|
|        2510|  3.9783e+01|  3.9783e+01|   -8.883631|  1.3412e-05|    0.127917|
|        2520|  3.9783e+01|  3.9783e+01|   -8.889126|  1.3323e-05|    0.127933|
|        2530|  3.9783e+01|  3.9783e+01|   -8.894671|  1.3235e-05|    0.127949|
|        2540|  3.9783e+01|  3.9783e+01|   -8.900207|  1.3148e-05|    0.127964|
|        2550|  3.9783e+01|  3.9783e+01|   -8.905683|  1.3060e-05|    0.127979|
|        2560|  3.9783e+01|  3.9783e+01|   -8.911063|  1.2971e-05|    0.127994|
|        2570|  3.9783e+01|  3.9783e+01|   -8.916361|  1.2882e-05|    0.128009|
|        2580|  3.9783e+01|  3.9783e+01|   -8.921626|  1.2792e-05|    0.128024|
|        2590|  3.9783e+01|  3.9783e+01|   -8.926901|  1.2703e-05|    0.128039|
|        2600|  3.9783e+01|  3.9783e+01|   -8.932177|  1.2614e-05|    0.128054|
+-----------------------------------------------------------------------+
|        File Writing Summary       |              Filename             |
+-----------------------------------------------------------------------+
|SU2 binary restart                 |restart_flow_G3.dat                |
|Paraview                           |flow_G3.vtu                        |
|Paraview surface                   |surface_flow_G3.vtu                |
+-----------------------------------------------------------------------+
+-----------------------------------------------------------------------------+
|  Inner_Iter|     Min CFL|     Max CFL|      rms[P]|  Cauchy[CD]|          CD|
+-----------------------------------------------------------------------------+
|        2610|  3.9783e+01|  3.9783e+01|   -8.937431|  1.2520e-05|    0.128068|
|        2620|  3.9783e+01|  3.9783e+01|   -8.942645|  1.2423e-05|    0.128083|
|        2630|  3.9783e+01|  3.9783e+01|   -8.947822|  1.2327e-05|    0.128097|
|        2640|  3.9783e+01|  3.9783e+01|   -8.952977|  1.2231e-05|    0.128111|
|        2650|  3.9783e+01|  3.9783e+01|   -8.958123|  1.2136e-05|    0.128125|
|        2660|  3.9783e+01|  3.9783e+01|   -8.963270|  1.2040e-05|    0.128139|
|        2670|  3.9783e+01|  3.9783e+01|   -8.968415|  1.1945e-05|    0.128153|
|        2680|  3.9783e+01|  3.9783e+01|   -8.973559|  1.1850e-05|    0.128167|
|        2690|  3.9783e+01|  3.9783e+01|   -8.978703|  1.1755e-05|    0.128181|
|        2700|  3.9783e+01|  3.9783e+01|   -8.983845|  1.1660e-05|    0.128194|
|        2710|  3.9783e+01|  3.9783e+01|   -8.988980|  1.1565e-05|    0.128207|
|        2720|  3.9783e+01|  3.9783e+01|   -8.994104|  1.1471e-05|    0.128221|
|        2730|  3.9783e+01|  3.9783e+01|   -8.999212|  1.1376e-05|    0.128234|
|        2740|  3.9783e+01|  3.9783e+01|   -9.004309|  1.1282e-05|    0.128247|
|        2750|  3.9783e+01|  3.9783e+01|   -9.009403|  1.1188e-05|    0.128260|
|        2760|  3.9783e+01|  3.9783e+01|   -9.014496|  1.1095e-05|    0.128273|
|        2770|  3.9783e+01|  3.9783e+01|   -9.019585|  1.1002e-05|    0.128285|
|        2780|  3.9783e+01|  3.9783e+01|   -9.024668|  1.0909e-05|    0.128298|
|        2790|  3.9783e+01|  3.9783e+01|   -9.029745|  1.0816e-05|    0.128310|
|        2800|  3.9783e+01|  3.9783e+01|   -9.034815|  1.0723e-05|    0.128323|
+-----------------------------------------------------------------------+
|        File Writing Summary       |              Filename             |
+-----------------------------------------------------------------------+
|SU2 binary restart                 |restart_flow_G3.dat                |
|Paraview                           |flow_G3.vtu                        |
|Paraview surface                   |surface_flow_G3.vtu                |
+-----------------------------------------------------------------------+
+-----------------------------------------------------------------------------+
|  Inner_Iter|     Min CFL|     Max CFL|      rms[P]|  Cauchy[CD]|          CD|
+-----------------------------------------------------------------------------+
|        2810|  3.9783e+01|  3.9783e+01|   -9.039881|  1.0631e-05|    0.128335|
|        2820|  3.9783e+01|  3.9783e+01|   -9.044941|  1.0540e-05|    0.128347|
|        2830|  3.9783e+01|  3.9783e+01|   -9.049996|  1.0449e-05|    0.128359|
|        2840|  3.9783e+01|  3.9783e+01|   -9.055044|  1.0358e-05|    0.128371|
|        2850|  3.9783e+01|  3.9783e+01|   -9.060081|  1.0268e-05|    0.128383|
|        2860|  3.9783e+01|  3.9783e+01|   -9.065105|  1.0179e-05|    0.128395|
|        2870|  3.9783e+01|  3.9783e+01|   -9.070114|  1.0090e-05|    0.128406|
|        2880|  3.9783e+01|  3.9783e+01|   -9.075107|  1.0002e-05|    0.128418|
|        2890|  3.9783e+01|  3.9783e+01|   -9.080082|  9.9140e-06|    0.128429|
|        2900|  3.9783e+01|  3.9783e+01|   -9.085038|  9.8269e-06|    0.128441|
|        2910|  3.9783e+01|  3.9783e+01|   -9.089972|  9.7405e-06|    0.128452|
|        2920|  3.9783e+01|  3.9783e+01|   -9.094886|  9.6549e-06|    0.128463|
|        2930|  3.9783e+01|  3.9783e+01|   -9.099780|  9.5698e-06|    0.128474|
|        2940|  3.9783e+01|  3.9783e+01|   -9.104654|  9.4855e-06|    0.128485|
|        2950|  3.9783e+01|  3.9783e+01|   -9.109506|  9.4017e-06|    0.128496|
|        2960|  3.9783e+01|  3.9783e+01|   -9.114340|  9.3185e-06|    0.128507|
|        2970|  3.9783e+01|  3.9783e+01|   -9.119157|  9.2360e-06|    0.128517|
|        2980|  3.9783e+01|  3.9783e+01|   -9.123962|  9.1542e-06|    0.128528|
|        2990|  3.9783e+01|  3.9783e+01|   -9.128753|  9.0729e-06|    0.128538|
|        3000|  3.9783e+01|  3.9783e+01|   -9.133532|  8.9923e-06|    0.128549|
+-----------------------------------------------------------------------+
|        File Writing Summary       |              Filename             |
+-----------------------------------------------------------------------+
|SU2 binary restart                 |restart_flow_G3.dat                |
|Paraview                           |flow_G3.vtu                        |
|Paraview surface                   |surface_flow_G3.vtu                |
+-----------------------------------------------------------------------+
+-----------------------------------------------------------------------------+
|  Inner_Iter|     Min CFL|     Max CFL|      rms[P]|  Cauchy[CD]|          CD|
+-----------------------------------------------------------------------------+
|        3010|  3.9783e+01|  3.9783e+01|   -9.138298|  8.9122e-06|    0.128559|
|        3020|  3.9783e+01|  3.9783e+01|   -9.143051|  8.8328e-06|    0.128569|
|        3030|  3.9783e+01|  3.9783e+01|   -9.147797|  8.7539e-06|    0.128579|
|        3040|  3.9783e+01|  3.9783e+01|   -9.152543|  8.6757e-06|    0.128589|
|        3050|  3.9783e+01|  3.9783e+01|   -9.157288|  8.5981e-06|    0.128599|
|        3060|  3.9783e+01|  3.9783e+01|   -9.162029|  8.5211e-06|    0.128609|
|        3070|  3.9783e+01|  3.9783e+01|   -9.166765|  8.4447e-06|    0.128618|
|        3080|  3.9783e+01|  3.9783e+01|   -9.171496|  8.3688e-06|    0.128628|
|        3090|  3.9783e+01|  3.9783e+01|   -9.176227|  8.2935e-06|    0.128638|
|        3100|  3.9783e+01|  3.9783e+01|   -9.180960|  8.2188e-06|    0.128647|
|        3110|  3.9783e+01|  3.9783e+01|   -9.185696|  8.1446e-06|    0.128656|
|        3120|  3.9783e+01|  3.9783e+01|   -9.190430|  8.0709e-06|    0.128666|
|        3130|  3.9783e+01|  3.9783e+01|   -9.195165|  7.9978e-06|    0.128675|
|        3140|  3.9783e+01|  3.9783e+01|   -9.199900|  7.9251e-06|    0.128684|
|        3150|  3.9783e+01|  3.9783e+01|   -9.204636|  7.8531e-06|    0.128693|
|        3160|  3.9783e+01|  3.9783e+01|   -9.209373|  7.7815e-06|    0.128702|
|        3170|  3.9783e+01|  3.9783e+01|   -9.214109|  7.7104e-06|    0.128711|
|        3180|  3.9783e+01|  3.9783e+01|   -9.218842|  7.6398e-06|    0.128720|
|        3190|  3.9783e+01|  3.9783e+01|   -9.223571|  7.5697e-06|    0.128728|
|        3200|  3.9783e+01|  3.9783e+01|   -9.228297|  7.5001e-06|    0.128737|
+-----------------------------------------------------------------------+
|        File Writing Summary       |              Filename             |
+-----------------------------------------------------------------------+
|SU2 binary restart                 |restart_flow_G3.dat                |
|Paraview                           |flow_G3.vtu                        |
|Paraview surface                   |surface_flow_G3.vtu                |
+-----------------------------------------------------------------------+
+-----------------------------------------------------------------------------+
|  Inner_Iter|     Min CFL|     Max CFL|      rms[P]|  Cauchy[CD]|          CD|
+-----------------------------------------------------------------------------+
|        3210|  3.9783e+01|  3.9783e+01|   -9.233019|  7.4310e-06|    0.128745|
|        3220|  3.9783e+00|  3.9783e+00|   -9.237735|  7.3624e-06|    0.128754|
|        3230|  2.4633e+01|  2.4633e+01|   -9.243914|  7.1033e-06|    0.128756|
|        3240|  1.2710e+01|  1.2710e+01|   -9.245640|  6.8933e-06|    0.128760|
|        3250|  6.5581e+00|  6.5581e+00|   -9.246224|  6.7127e-06|    0.128764|
|        3260|  4.0606e+01|  4.0606e+01|   -9.249580|  6.5030e-06|    0.128768|
|        3270|  2.0952e+01|  2.0952e+01|   -9.252042|  6.2668e-06|    0.128771|
|        3280|  1.0811e+01|  1.0811e+01|   -9.253045|  6.0733e-06|    0.128774|
|        3290|  3.8736e+01|  3.8736e+01|   -9.253206|  5.9251e-06|    0.128780|
|        3300|  3.8736e+01|  3.8736e+01|   -9.256622|  5.8612e-06|    0.128788|
|        3310|  3.8736e+01|  3.8736e+01|   -9.261777|  5.8009e-06|    0.128795|
|        3320|  3.8736e+01|  3.8736e+01|   -9.266489|  5.7416e-06|    0.128803|
|        3330|  3.8736e+01|  3.8736e+01|   -9.271119|  5.6825e-06|    0.128811|
|        3340|  3.8736e+01|  3.8736e+01|   -9.275396|  5.6229e-06|    0.128819|
|        3350|  3.8736e+01|  3.8736e+01|   -9.279758|  5.5621e-06|    0.128826|
|        3360|  3.8736e+01|  3.8736e+01|   -9.284130|  5.5021e-06|    0.128834|
|        3370|  3.8736e+01|  3.8736e+01|   -9.288511|  5.4440e-06|    0.128841|
|        3380|  3.8736e+01|  3.8736e+01|   -9.293104|  5.3872e-06|    0.128848|
|        3390|  3.8736e+01|  3.8736e+01|   -9.297696|  5.3303e-06|    0.128856|
|        3400|  3.8736e+01|  3.8736e+01|   -9.302166|  5.2733e-06|    0.128863|
+-----------------------------------------------------------------------+
|        File Writing Summary       |              Filename             |
+-----------------------------------------------------------------------+
|SU2 binary restart                 |restart_flow_G3.dat                |
|Paraview                           |flow_G3.vtu                        |
|Paraview surface                   |surface_flow_G3.vtu                |
+-----------------------------------------------------------------------+
+-----------------------------------------------------------------------------+
|  Inner_Iter|     Min CFL|     Max CFL|      rms[P]|  Cauchy[CD]|          CD|
+-----------------------------------------------------------------------------+
|        3410|  3.8736e+01|  3.8736e+01|   -9.306483|  5.2167e-06|    0.128870|
|        3420|  3.8736e+01|  3.8736e+01|   -9.310775|  5.1611e-06|    0.128877|
|        3430|  3.8736e+01|  3.8736e+01|   -9.315182|  5.1063e-06|    0.128884|
|        3440|  3.8736e+01|  3.8736e+01|   -9.319668|  5.0521e-06|    0.128891|
|        3450|  3.8736e+01|  3.8736e+01|   -9.324061|  4.9980e-06|    0.128898|
|        3460|  3.8736e+01|  3.8736e+01|   -9.328299|  4.9443e-06|    0.128905|
|        3470|  3.8736e+01|  3.8736e+01|   -9.332562|  4.8912e-06|    0.128911|
|        3480|  3.8736e+01|  3.8736e+01|   -9.337026|  5.0297e-06|    0.128918|
|        3490|  3.8736e+01|  3.8736e+01|   -9.341604|  5.1202e-06|    0.128925|
|        3500|  3.8736e+01|  3.8736e+01|   -9.346067|  5.1824e-06|    0.128931|
|        3510|  3.8736e+01|  3.8736e+01|   -9.350314|  5.2745e-06|    0.128938|
|        3520|  3.8736e+01|  3.8736e+01|   -9.354452|  5.3942e-06|    0.128944|
|        3530|  3.8736e+01|  3.8736e+01|   -9.358664|  5.4722e-06|    0.128951|
|        3540|  3.8736e+01|  3.8736e+01|   -9.363042|  5.5060e-06|    0.128957|
|        3550|  3.8736e+01|  3.8736e+01|   -9.367522|  5.4566e-06|    0.128963|
|        3560|  3.8736e+01|  3.8736e+01|   -9.371966|  5.4046e-06|    0.128970|
|        3570|  3.8736e+01|  3.8736e+01|   -9.376284|  5.3526e-06|    0.128976|
|        3580|  3.8736e+01|  3.8736e+01|   -9.380500|  5.3013e-06|    0.128982|
|        3590|  3.8736e+01|  3.8736e+01|   -9.384715|  5.2516e-06|    0.128988|
|        3600|  3.8736e+01|  3.8736e+01|   -9.389014|  5.2040e-06|    0.128994|
+-----------------------------------------------------------------------+
|        File Writing Summary       |              Filename             |
+-----------------------------------------------------------------------+
|SU2 binary restart                 |restart_flow_G3.dat                |
|Paraview                           |flow_G3.vtu                        |
|Paraview surface                   |surface_flow_G3.vtu                |
+-----------------------------------------------------------------------+
+-----------------------------------------------------------------------------+
|  Inner_Iter|     Min CFL|     Max CFL|      rms[P]|  Cauchy[CD]|          CD|
+-----------------------------------------------------------------------------+
|        3610|  3.8736e+01|  3.8736e+01|   -9.393394|  5.1567e-06|    0.129000|
|        3620|  3.8736e+01|  3.8736e+01|   -9.397784|  5.1085e-06|    0.129006|
|        3630|  3.8736e+01|  3.8736e+01|   -9.402120|  5.0600e-06|    0.129011|
|        3640|  3.8736e+01|  3.8736e+01|   -9.406394|  5.0126e-06|    0.129017|
|        3650|  3.8736e+01|  3.8736e+01|   -9.410656|  4.9664e-06|    0.129023|
|        3660|  3.8736e+01|  3.8736e+01|   -9.414952|  4.9206e-06|    0.129029|
|        3670|  3.8736e+01|  3.8736e+01|   -9.419286|  4.8749e-06|    0.129034|
|        3680|  3.8736e+01|  3.8736e+01|   -9.423627|  4.8294e-06|    0.129040|
|        3690|  3.8736e+01|  3.8736e+01|   -9.427947|  4.7842e-06|    0.129045|
|        3700|  3.8736e+01|  3.8736e+01|   -9.432247|  4.7399e-06|    0.129051|
|        3710|  3.8736e+01|  3.8736e+01|   -9.436549|  4.6961e-06|    0.129056|
|        3720|  3.8736e+01|  3.8736e+01|   -9.440869|  4.6528e-06|    0.129062|
|        3730|  3.8736e+01|  3.8736e+01|   -9.445202|  4.6097e-06|    0.129067|
|        3740|  3.8736e+01|  3.8736e+01|   -9.449534|  4.5670e-06|    0.129072|
|        3750|  3.8736e+01|  3.8736e+01|   -9.453856|  4.5247e-06|    0.129077|
|        3760|  3.8736e+01|  3.8736e+01|   -9.458172|  4.4830e-06|    0.129082|
|        3770|  3.8736e+01|  3.8736e+01|   -9.462493|  4.4417e-06|    0.129088|
|        3780|  3.8736e+01|  3.8736e+01|   -9.466826|  4.4008e-06|    0.129093|
|        3790|  3.8736e+01|  3.8736e+01|   -9.471166|  4.3603e-06|    0.129098|
|        3800|  3.8736e+01|  3.8736e+01|   -9.475506|  4.3202e-06|    0.129103|
+-----------------------------------------------------------------------+
|        File Writing Summary       |              Filename             |
+-----------------------------------------------------------------------+
|SU2 binary restart                 |restart_flow_G3.dat                |
|Paraview                           |flow_G3.vtu                        |
|Paraview surface                   |surface_flow_G3.vtu                |
+-----------------------------------------------------------------------+
+-----------------------------------------------------------------------------+
|  Inner_Iter|     Min CFL|     Max CFL|      rms[P]|  Cauchy[CD]|          CD|
+-----------------------------------------------------------------------------+
|        3810|  3.8736e+01|  3.8736e+01|   -9.479841|  4.2805e-06|    0.129108|
|        3820|  3.8736e+01|  3.8736e+01|   -9.484174|  4.2412e-06|    0.129112|
|        3830|  3.8736e+01|  3.8736e+01|   -9.488509|  4.2023e-06|    0.129117|
|        3840|  3.8736e+01|  3.8736e+01|   -9.492853|  4.1638e-06|    0.129122|
|        3850|  3.8736e+01|  3.8736e+01|   -9.497203|  4.1256e-06|    0.129127|
|        3860|  3.8736e+01|  3.8736e+01|   -9.501553|  4.0877e-06|    0.129132|
|        3870|  3.8736e+01|  3.8736e+01|   -9.505903|  4.0502e-06|    0.129136|
|        3880|  3.8736e+01|  3.8736e+01|   -9.510251|  4.0131e-06|    0.129141|
|        3890|  3.8736e+01|  3.8736e+01|   -9.514600|  3.9763e-06|    0.129146|
|        3900|  3.8736e+01|  3.8736e+01|   -9.518952|  3.9398e-06|    0.129150|
|        3910|  3.8736e+01|  3.8736e+01|   -9.523309|  3.9037e-06|    0.129155|
|        3920|  3.8736e+01|  3.8736e+01|   -9.527668|  3.8678e-06|    0.129159|
|        3930|  3.8736e+01|  3.8736e+01|   -9.532027|  3.8324e-06|    0.129163|
|        3940|  3.8736e+01|  3.8736e+01|   -9.536386|  3.7972e-06|    0.129168|
|        3950|  3.8736e+01|  3.8736e+01|   -9.540744|  3.7623e-06|    0.129172|
|        3960|  3.8736e+01|  3.8736e+01|   -9.545103|  3.7278e-06|    0.129176|
|        3970|  3.8736e+01|  3.8736e+01|   -9.549462|  3.6936e-06|    0.129181|
|        3980|  3.8736e+01|  3.8736e+01|   -9.553822|  3.6596e-06|    0.129185|
|        3990|  3.8736e+01|  3.8736e+01|   -9.558181|  3.6260e-06|    0.129189|
|        4000|  3.8736e+01|  3.8736e+01|   -9.562537|  3.5927e-06|    0.129193|
+-----------------------------------------------------------------------+
|        File Writing Summary       |              Filename             |
+-----------------------------------------------------------------------+
|SU2 binary restart                 |restart_flow_G3.dat                |
|Paraview                           |flow_G3.vtu                        |
|Paraview surface                   |surface_flow_G3.vtu                |
+-----------------------------------------------------------------------+
+-----------------------------------------------------------------------------+
|  Inner_Iter|     Min CFL|     Max CFL|      rms[P]|  Cauchy[CD]|          CD|
+-----------------------------------------------------------------------------+
|        4010|  3.8736e+01|  3.8736e+01|   -9.566889|  3.5596e-06|    0.129197|
|        4020|  3.8736e+01|  3.8736e+01|   -9.571239|  3.5269e-06|    0.129201|
|        4030|  3.8736e+01|  3.8736e+01|   -9.575586|  3.4944e-06|    0.129205|
|        4040|  3.8736e+01|  3.8736e+01|   -9.579932|  3.4623e-06|    0.129209|
|        4050|  3.8736e+01|  3.8736e+01|   -9.584275|  3.4304e-06|    0.129213|
|        4060|  3.8736e+01|  3.8736e+01|   -9.588615|  3.3987e-06|    0.129217|
|        4070|  3.8736e+01|  3.8736e+01|   -9.592951|  3.3674e-06|    0.129221|
|        4080|  3.8736e+01|  3.8736e+01|   -9.597282|  3.3362e-06|    0.129225|
|        4090|  3.8736e+01|  3.8736e+01|   -9.601608|  3.3054e-06|    0.129229|
|        4100|  3.8736e+01|  3.8736e+01|   -9.605929|  3.2748e-06|    0.129233|
|        4110|  3.8736e+01|  3.8736e+01|   -9.610246|  3.2445e-06|    0.129236|
|        4120|  3.8736e+01|  3.8736e+01|   -9.614560|  3.2145e-06|    0.129240|
|        4130|  3.8736e+01|  3.8736e+01|   -9.618869|  3.1847e-06|    0.129244|
|        4140|  3.8736e+01|  3.8736e+01|   -9.623175|  3.1551e-06|    0.129247|
|        4150|  3.8736e+01|  3.8736e+01|   -9.627476|  3.1258e-06|    0.129251|
|        4160|  3.8736e+01|  3.8736e+01|   -9.631771|  3.0968e-06|    0.129255|
|        4170|  3.8736e+01|  3.8736e+01|   -9.636061|  3.0680e-06|    0.129258|
|        4180|  3.8736e+01|  3.8736e+01|   -9.640345|  3.0394e-06|    0.129262|
|        4190|  3.8736e+01|  3.8736e+01|   -9.644626|  3.0111e-06|    0.129265|
|        4200|  3.8736e+01|  3.8736e+01|   -9.648903|  2.9830e-06|    0.129269|
+-----------------------------------------------------------------------+
|        File Writing Summary       |              Filename             |
+-----------------------------------------------------------------------+
|SU2 binary restart                 |restart_flow_G3.dat                |
|Paraview                           |flow_G3.vtu                        |
|Paraview surface                   |surface_flow_G3.vtu                |
+-----------------------------------------------------------------------+
+-----------------------------------------------------------------------------+
|  Inner_Iter|     Min CFL|     Max CFL|      rms[P]|  Cauchy[CD]|          CD|
+-----------------------------------------------------------------------------+
|        4210|  3.8736e+01|  3.8736e+01|   -9.653178|  2.9551e-06|    0.129272|
|        4220|  3.8736e+01|  3.8736e+01|   -9.657448|  2.9275e-06|    0.129275|
|        4230|  3.8736e+01|  3.8736e+01|   -9.661714|  2.9001e-06|    0.129279|
|        4240|  3.8736e+01|  3.8736e+01|   -9.665974|  2.8730e-06|    0.129282|
|        4250|  3.8736e+01|  3.8736e+01|   -9.670229|  2.8461e-06|    0.129285|
|        4260|  3.8736e+01|  3.8736e+01|   -9.674480|  2.8194e-06|    0.129288|
|        4270|  3.8736e+01|  3.8736e+01|   -9.678728|  2.7929e-06|    0.129292|
|        4280|  3.8736e+01|  3.8736e+01|   -9.682973|  2.7667e-06|    0.129295|
|        4290|  3.8736e+01|  3.8736e+01|   -9.687214|  2.7407e-06|    0.129298|
|        4300|  3.8736e+01|  3.8736e+01|   -9.691452|  2.7149e-06|    0.129301|
|        4310|  3.8736e+01|  3.8736e+01|   -9.695684|  2.6894e-06|    0.129304|
|        4320|  3.8736e+01|  3.8736e+01|   -9.699911|  2.6640e-06|    0.129307|
|        4330|  3.8736e+01|  3.8736e+01|   -9.704127|  2.6389e-06|    0.129310|
|        4340|  3.8736e+01|  3.8736e+01|   -9.708341|  2.6140e-06|    0.129313|
|        4350|  3.8736e+01|  3.8736e+01|   -9.712558|  2.5894e-06|    0.129316|
|        4360|  3.8736e+01|  3.8736e+01|   -9.716777|  2.5649e-06|    0.129319|
|        4370|  3.8736e+01|  3.8736e+01|   -9.720995|  2.5407e-06|    0.129322|
|        4380|  3.8736e+01|  3.8736e+01|   -9.725209|  2.5167e-06|    0.129325|
|        4390|  3.8736e+01|  3.8736e+01|   -9.729414|  2.4930e-06|    0.129328|
|        4400|  3.8736e+01|  3.8736e+01|   -9.733610|  2.4694e-06|    0.129331|
+-----------------------------------------------------------------------+
|        File Writing Summary       |              Filename             |
+-----------------------------------------------------------------------+
|SU2 binary restart                 |restart_flow_G3.dat                |
|Paraview                           |flow_G3.vtu                        |
|Paraview surface                   |surface_flow_G3.vtu                |
+-----------------------------------------------------------------------+
+-----------------------------------------------------------------------------+
|  Inner_Iter|     Min CFL|     Max CFL|      rms[P]|  Cauchy[CD]|          CD|
+-----------------------------------------------------------------------------+
|        4410|  3.8736e+01|  3.8736e+01|   -9.737801|  2.4461e-06|    0.129334|
|        4420|  3.8736e+01|  3.8736e+01|   -9.741991|  2.4230e-06|    0.129336|
|        4430|  3.8736e+01|  3.8736e+01|   -9.746180|  2.4001e-06|    0.129339|
|        4440|  3.8736e+01|  3.8736e+01|   -9.750368|  2.3774e-06|    0.129342|
|        4450|  3.8736e+01|  3.8736e+01|   -9.754553|  2.3549e-06|    0.129345|
|        4460|  3.8736e+01|  3.8736e+01|   -9.758734|  2.3327e-06|    0.129347|
|        4470|  3.8736e+01|  3.8736e+01|   -9.762912|  2.3106e-06|    0.129350|
|        4480|  3.8736e+01|  3.8736e+01|   -9.767088|  2.2888e-06|    0.129353|
|        4490|  3.8736e+01|  3.8736e+01|   -9.771262|  2.2671e-06|    0.129355|
|        4500|  3.8736e+01|  3.8736e+01|   -9.775433|  2.2457e-06|    0.129358|
|        4510|  3.8736e+01|  3.8736e+01|   -9.779601|  2.2244e-06|    0.129360|
|        4520|  3.8736e+01|  3.8736e+01|   -9.783768|  2.2034e-06|    0.129363|
|        4530|  3.8736e+01|  3.8736e+01|   -9.787934|  2.1825e-06|    0.129365|
|        4540|  3.8736e+01|  3.8736e+01|   -9.792098|  2.1619e-06|    0.129368|
|        4550|  3.8736e+01|  3.8736e+01|   -9.796262|  2.1414e-06|    0.129370|
|        4560|  3.8736e+01|  3.8736e+01|   -9.800425|  2.1212e-06|    0.129373|
|        4570|  3.8736e+01|  3.8736e+01|   -9.804587|  2.1011e-06|    0.129375|
|        4580|  3.8736e+01|  3.8736e+01|   -9.808748|  2.0812e-06|    0.129378|
|        4590|  3.8736e+01|  3.8736e+01|   -9.812908|  2.0615e-06|    0.129380|
|        4600|  3.8736e+01|  3.8736e+01|   -9.817068|  2.0419e-06|    0.129382|
+-----------------------------------------------------------------------+
|        File Writing Summary       |              Filename             |
+-----------------------------------------------------------------------+
|SU2 binary restart                 |restart_flow_G3.dat                |
|Paraview                           |flow_G3.vtu                        |
|Paraview surface                   |surface_flow_G3.vtu                |
+-----------------------------------------------------------------------+
+-----------------------------------------------------------------------------+
|  Inner_Iter|     Min CFL|     Max CFL|      rms[P]|  Cauchy[CD]|          CD|
+-----------------------------------------------------------------------------+
|        4610|  3.8736e+01|  3.8736e+01|   -9.821227|  2.0226e-06|    0.129385|
|        4620|  3.8736e+01|  3.8736e+01|   -9.825386|  2.0035e-06|    0.129387|
|        4630|  3.8736e+01|  3.8736e+01|   -9.829545|  1.9845e-06|    0.129389|
|        4640|  3.8736e+01|  3.8736e+01|   -9.833703|  1.9657e-06|    0.129392|
|        4650|  3.8736e+01|  3.8736e+01|   -9.837862|  1.9470e-06|    0.129394|
|        4660|  3.8736e+01|  3.8736e+01|   -9.842021|  1.9286e-06|    0.129396|
|        4670|  3.8736e+01|  3.8736e+01|   -9.846178|  1.9103e-06|    0.129398|
|        4680|  3.8736e+01|  3.8736e+01|   -9.850335|  1.8922e-06|    0.129400|
|        4690|  3.8736e+01|  3.8736e+01|   -9.854492|  1.8742e-06|    0.129403|
|        4700|  3.8736e+01|  3.8736e+01|   -9.858650|  1.8565e-06|    0.129405|
|        4710|  3.8736e+01|  3.8736e+01|   -9.862806|  1.8389e-06|    0.129407|
|        4720|  3.8736e+01|  3.8736e+01|   -9.866961|  1.8215e-06|    0.129409|
|        4730|  3.8736e+01|  3.8736e+01|   -9.871116|  1.8042e-06|    0.129411|
|        4740|  3.8736e+01|  3.8736e+01|   -9.875269|  1.7871e-06|    0.129413|
|        4750|  3.8736e+01|  3.8736e+01|   -9.879422|  1.7702e-06|    0.129415|
|        4760|  3.8736e+01|  3.8736e+01|   -9.883575|  1.7534e-06|    0.129417|
|        4770|  3.8736e+01|  3.8736e+01|   -9.887726|  1.7368e-06|    0.129419|
|        4780|  3.8736e+01|  3.8736e+01|   -9.891876|  1.7204e-06|    0.129421|
|        4790|  3.8736e+01|  3.8736e+01|   -9.896025|  1.7041e-06|    0.129423|
|        4800|  3.8736e+01|  3.8736e+01|   -9.900173|  1.6879e-06|    0.129425|
+-----------------------------------------------------------------------+
|        File Writing Summary       |              Filename             |
+-----------------------------------------------------------------------+
|SU2 binary restart                 |restart_flow_G3.dat                |
|Paraview                           |flow_G3.vtu                        |
|Paraview surface                   |surface_flow_G3.vtu                |
+-----------------------------------------------------------------------+
+-----------------------------------------------------------------------------+
|  Inner_Iter|     Min CFL|     Max CFL|      rms[P]|  Cauchy[CD]|          CD|
+-----------------------------------------------------------------------------+
|        4810|  3.8736e+01|  3.8736e+01|   -9.904320|  1.6720e-06|    0.129427|
|        4820|  3.8736e+01|  3.8736e+01|   -9.908466|  1.6561e-06|    0.129429|
|        4830|  3.8736e+01|  3.8736e+01|   -9.912612|  1.6405e-06|    0.129431|
|        4840|  3.8736e+01|  3.8736e+01|   -9.916758|  1.6249e-06|    0.129433|
|        4850|  3.8736e+01|  3.8736e+01|   -9.920903|  1.6096e-06|    0.129434|
|        4860|  3.8736e+01|  3.8736e+01|   -9.925048|  1.5943e-06|    0.129436|
|        4870|  3.8736e+01|  3.8736e+01|   -9.929193|  1.5792e-06|    0.129438|
|        4880|  3.8736e+01|  3.8736e+01|   -9.933334|  1.5643e-06|    0.129440|
|        4890|  3.8736e+01|  3.8736e+01|   -9.937475|  1.5495e-06|    0.129442|
|        4900|  3.8736e+01|  3.8736e+01|   -9.941619|  1.5348e-06|    0.129443|
|        4910|  3.8736e+01|  3.8736e+01|   -9.945766|  1.5203e-06|    0.129445|
|        4920|  3.8736e+01|  3.8736e+01|   -9.949916|  1.5059e-06|    0.129447|
|        4930|  3.8736e+01|  3.8736e+01|   -9.954066|  1.4916e-06|    0.129449|
|        4940|  3.8736e+01|  3.8736e+01|   -9.958211|  1.4775e-06|    0.129450|
|        4950|  3.8736e+01|  3.8736e+01|   -9.962351|  1.4635e-06|    0.129452|
|        4960|  3.8736e+01|  3.8736e+01|   -9.966491|  1.4497e-06|    0.129454|
|        4970|  3.8736e+01|  3.8736e+01|   -9.970632|  1.4359e-06|    0.129455|
|        4980|  3.8736e+01|  3.8736e+01|   -9.974777|  1.4223e-06|    0.129457|
|        4990|  3.8736e+01|  3.8736e+01|   -9.978922|  1.4089e-06|    0.129459|
|        5000|  3.8736e+01|  3.8736e+01|   -9.983066|  1.3955e-06|    0.129460|
+-----------------------------------------------------------------------+
|        File Writing Summary       |              Filename             |
+-----------------------------------------------------------------------+
|SU2 binary restart                 |restart_flow_G3.dat                |
|Paraview                           |flow_G3.vtu                        |
|Paraview surface                   |surface_flow_G3.vtu                |
+-----------------------------------------------------------------------+
+-----------------------------------------------------------------------------+
|  Inner_Iter|     Min CFL|     Max CFL|      rms[P]|  Cauchy[CD]|          CD|
+-----------------------------------------------------------------------------+
|        5010|  3.8736e+01|  3.8736e+01|   -9.987209|  1.3823e-06|    0.129462|
|        5020|  3.8736e+01|  3.8736e+01|   -9.991349|  1.3692e-06|    0.129463|
|        5030|  3.8736e+01|  3.8736e+01|   -9.995489|  1.3563e-06|    0.129465|
|        5040|  3.8736e+01|  3.8736e+01|   -9.999629|  1.3434e-06|    0.129467|
|        5050|  3.8736e+01|  3.8736e+01|  -10.003768|  1.3307e-06|    0.129468|
|        5060|  3.8736e+01|  3.8736e+01|  -10.007907|  1.3181e-06|    0.129470|
|        5070|  3.8736e+01|  3.8736e+01|  -10.012045|  1.3057e-06|    0.129471|
|        5080|  3.8736e+01|  3.8736e+01|  -10.016182|  1.2933e-06|    0.129473|
|        5090|  3.8736e+01|  3.8736e+01|  -10.020318|  1.2811e-06|    0.129474|
|        5100|  3.8736e+01|  3.8736e+01|  -10.024453|  1.2689e-06|    0.129476|
|        5110|  3.8736e+01|  3.8736e+01|  -10.028588|  1.2569e-06|    0.129477|
|        5120|  3.8736e+01|  3.8736e+01|  -10.032721|  1.2450e-06|    0.129478|
|        5130|  3.8736e+01|  3.8736e+01|  -10.036854|  1.2333e-06|    0.129480|
|        5140|  3.8736e+01|  3.8736e+01|  -10.040986|  1.2216e-06|    0.129481|
|        5150|  3.8736e+01|  3.8736e+01|  -10.045118|  1.2101e-06|    0.129483|
|        5160|  3.8736e+01|  3.8736e+01|  -10.049249|  1.1986e-06|    0.129484|
|        5170|  3.8736e+01|  3.8736e+01|  -10.053380|  1.1873e-06|    0.129485|
|        5180|  3.8736e+01|  3.8736e+01|  -10.057511|  1.1761e-06|    0.129487|
|        5190|  3.8736e+01|  3.8736e+01|  -10.061641|  1.1650e-06|    0.129488|
|        5200|  3.8736e+01|  3.8736e+01|  -10.065771|  1.1540e-06|    0.129489|
+-----------------------------------------------------------------------+
|        File Writing Summary       |              Filename             |
+-----------------------------------------------------------------------+
|SU2 binary restart                 |restart_flow_G3.dat                |
|Paraview                           |flow_G3.vtu                        |
|Paraview surface                   |surface_flow_G3.vtu                |
+-----------------------------------------------------------------------+
+-----------------------------------------------------------------------------+
|  Inner_Iter|     Min CFL|     Max CFL|      rms[P]|  Cauchy[CD]|          CD|
+-----------------------------------------------------------------------------+
|        5210|  3.8736e+01|  3.8736e+01|  -10.069902|  1.1431e-06|    0.129491|
|        5220|  3.8736e+01|  3.8736e+01|  -10.074034|  1.1323e-06|    0.129492|
|        5230|  3.8736e+01|  3.8736e+01|  -10.078166|  1.1216e-06|    0.129493|
|        5240|  3.8736e+01|  3.8736e+01|  -10.082299|  1.1110e-06|    0.129495|
|        5250|  3.8736e+01|  3.8736e+01|  -10.086431|  1.1005e-06|    0.129496|
|        5260|  3.8736e+01|  3.8736e+01|  -10.090565|  1.0901e-06|    0.129497|
|        5270|  3.8736e+01|  3.8736e+01|  -10.094699|  1.0798e-06|    0.129498|
|        5280|  3.8736e+01|  3.8736e+01|  -10.098835|  1.0696e-06|    0.129500|
|        5290|  3.8736e+01|  3.8736e+01|  -10.102971|  1.0595e-06|    0.129501|
|        5300|  3.8736e+01|  3.8736e+01|  -10.107108|  1.0495e-06|    0.129502|
|        5310|  3.8736e+01|  3.8736e+01|  -10.111246|  1.0396e-06|    0.129503|
|        5320|  3.8736e+01|  3.8736e+01|  -10.115384|  1.0298e-06|    0.129504|
|        5330|  3.8736e+01|  3.8736e+01|  -10.119524|  1.0201e-06|    0.129506|
|        5340|  3.8736e+01|  3.8736e+01|  -10.123665|  1.0105e-06|    0.129507|
|        5350|  3.8736e+01|  3.8736e+01|  -10.127806|  1.0009e-06|    0.129508|
|        5351|  3.8736e+01|  3.8736e+01|  -10.128220|  9.9997e-07|    0.129508|

----------------------------- Solver Exit -------------------------------
All convergence criteria satisfied.
+-----------------------------------------------------------------------+
|      Convergence Field     |     Value    |   Criterion  |  Converged |
+-----------------------------------------------------------------------+
|                      rms[P]|      -10.1282|          < -9|         Yes|
|                  Cauchy[CD]|   9.99974e-07|       < 1e-06|         Yes|
+-----------------------------------------------------------------------+
-------------------------------------------------------------------------
+-----------------------------------------------------------------------+
|        File Writing Summary       |              Filename             |
+-----------------------------------------------------------------------+
|SU2 binary restart                 |restart_flow_G3.dat                |
|Paraview                           |flow_G3.vtu                        |
|Paraview surface                   |surface_flow_G3.vtu                |
+-----------------------------------------------------------------------+

------------------------- Solver Postprocessing -------------------------
Deleted CNumerics container.
Deleted CIntegration container.
Deleted CSolver container.
Deleted CIteration container.
Deleted CInterface container.
Deleted CGeometry container.
Deleted CFreeFormDefBox class.
Deleted CSurfaceMovement class.
Deleted CVolumetricMovement class.
Deleted CConfig container.
Deleted nInst container.
Deleted COutput class.
-------------------------------------------------------------------------

------------------------- Exit Success (SU2_CFD) ------------------------

