
-------------------------------------------------------------------------
|    ___ _   _ ___                                                      |
|   / __| | | |_  )   Release 7.4.0 "Blackbird"                         |
|   \__ \ |_| |/ /                                                      |
|   |___/\___//___|   Suite (Computational Fluid Dynamics Code)         |
|                                                                       |
-------------------------------------------------------------------------
| SU2 Project Website: https://su2code.github.io                        |
|                                                                       |
| The SU2 Project is maintained by the SU2 Foundation                   |
| (http://su2foundation.org)                                            |
-------------------------------------------------------------------------
| Copyright 2012-2022, SU2 Contributors                                 |
|                                                                       |
| SU2 is free software; you can redistribute it and/or                  |
| modify it under the terms of the GNU Lesser General Public            |
| License as published by the Free Software Foundation; either          |
| version 2.1 of the License, or (at your option) any later version.    |
|                                                                       |
| SU2 is distributed in the hope that it will be useful,                |
| but WITHOUT ANY WARRANTY; without even the implied warranty of        |
| MERCHANTABILITY or FITNESS FOR A PARTICULAR PURPOSE. See the GNU      |
| Lesser General Public License for more details.                       |
|                                                                       |
| You should have received a copy of the GNU Lesser General Public      |
| License along with SU2. If not, see <http://www.gnu.org/licenses/>.   |
-------------------------------------------------------------------------

Parsing config file for zone 0

----------------- Physical Case Definition ( Zone 0 ) -------------------
Incompressible RANS equations.
Turbulence model: Spalart-Allmaras-noft2
Hybrid RANS/LES: No Hybrid RANS/LES
No restart solution, use the values at infinity (freestream).
Non-Dimensional simulation using intialization values.
The reference area is 1 m^2.
The semi-span will be computed using the max y(3D) value.
The reference length is 1.00898 m.
Reference origin for moment evaluation is (-0.756, 0, 0).
Surface(s) where the force coefficients are evaluated: AIRFOIL.

Surface(s) plotted in the output file: AIRFOIL.
Input mesh file name: ../meshG8/meshG8.su2

--------------- Space Numerical Integration ( Zone 0 ) ------------------
Flux difference splitting (FDS) upwind scheme for the flow inviscid terms.
First order integration in space.
Average of gradients with correction (viscous flow terms).
Average of gradients with correction (viscous turbulence terms).
Gradient for upwind reconstruction: unweighted Least-Squares.
Gradient for viscous and source terms: Green-Gauss.

--------------- Time Numerical Integration  ( Zone 0 ) ------------------
Local time stepping (steady state simulation).
Euler implicit method for the flow equations.
FGMRES is used for solving the linear system.
Using a ILU(0) preconditioning.
Convergence criteria of the linear solver: 1e-06.
Max number of linear iterations: 10.
CFL adaptation. Factor down: 0.1, factor up: 1.2,
                lower limit: 1, upper limit: 1000,
                acceptable linear residual: 0.001.
Courant-Friedrichs-Lewy number:        2
Euler implicit time integration for the turbulence model.

------------------ Convergence Criteria  ( Zone 0 ) ---------------------
Maximum number of solver subiterations: 9999.
Begin convergence monitoring at iteration 10.
Residual minimum value: 1e-9.
Cauchy series min. value: 1e-06.
Number of Cauchy elements: 250.
Begin windowed time average at iteration 0.

-------------------- Output Information ( Zone 0 ) ----------------------
File writing frequency: 
+------------------------------------+
|                     File| Frequency|
+------------------------------------+
|                  RESTART|       200|
|                 PARAVIEW|       200|
|         SURFACE_PARAVIEW|       200|
+------------------------------------+
Writing the convergence history file every 1 inner iterations.
Writing the screen convergence history every 10 inner iterations.
The tabular file format is CSV (.csv).
Convergence history file name: history_G8.
Forces breakdown file name: forces_breakdown.dat.
Surface file name: surface_flow_G8.
Volume file name: flow_G8.
Restart file name: restart_flow_G8.dat.

------------- Config File Boundary Information ( Zone 0 ) ---------------
+-----------------------------------------------------------------------+
|                        Marker Type|                        Marker Name|
+-----------------------------------------------------------------------+
|                          Far-field|                           FARFIELD|
+-----------------------------------------------------------------------+
|                     Heat flux wall|                            AIRFOIL|
+-----------------------------------------------------------------------+

-------------------- Output Preprocessing ( Zone 0 ) --------------------

WARNING: SURFACE_PRESSURE_DROP can only be computed for at least 2 surfaces (outlet, inlet, ...)

Screen output fields: INNER_ITER, MIN_CFL, MAX_CFL, RMS_PRESSURE, CAUCHY_DRAG, DRAG
History output group(s): INNER_ITER, MIN_CFL, MAX_CFL, RMS_RES, LIFT, DRAG, MOMENT_Z, CAUCHY
Convergence field(s): RMS_PRESSURE, DRAG
Warning: No (valid) fields chosen for time convergence monitoring. Time convergence monitoring inactive.
Volume output fields: COORDINATES, SOLUTION, PRIMITIVE, RESIDUAL, MESH_QUALITY

------------------- Geometry Preprocessing ( Zone 0 ) -------------------
Two dimensional problem.
545880 grid points before partitioning.
544214 volume elements before partitioning.
2 surface markers.
988 boundary elements in index 0 (Marker = AIRFOIL).
2344 boundary elements in index 1 (Marker = FARFIELD).
Executing the partitioning functions.
Building the graph adjacency structure.
Calling ParMETIS... graph partitioning complete (5072 edge cuts).
Distributing ParMETIS coloring.
Rebalancing vertices.
Rebalancing volume element connectivity.
Rebalancing markers and surface elements.
556047 vertices including ghost points. 
549286 interior elements including halo cells. 
549286 quadrilaterals.
Establishing MPI communication patterns.
Setting point connectivity.
Renumbering points (Reverse Cuthill McKee Ordering).
Recomputing point connectivity.
Setting element connectivity.
Checking the numerical grid orientation.
All volume elements are correctly orientend.
There has been a re-orientation of 1673 LINE surface elements.
Identifying edges and vertices.
Setting the control volume structure.
Area of the computational grid: 3236.52.
Searching for the closest normal neighbors to the surfaces.
Storing a mapping from global to local point index.
Compute the surface curvature.
Max K: 8710.21. Mean K: 4.32336. Standard deviation K: 151.528.
Checking for periodicity.
Computing mesh quality statistics for the dual control volumes.
+--------------------------------------------------------------+
|           Mesh Quality Metric|        Minimum|        Maximum|
+--------------------------------------------------------------+
|    Orthogonality Angle (deg.)|        76.3677|             90|
|     CV Face Area Aspect Ratio|        1.00003|        80029.8|
|           CV Sub-Volume Ratio|              1|        49.0466|
+--------------------------------------------------------------+
Finding max control volume width.
Communicating number of neighbors.
Wetted area = 2.05981 m.
Area projection in the x-plane = 0.121118 m, y-plane = 1.00886 m.
Max. coordinate in the x-direction = 1.00898 m, y-direction = 0.0759841 m.
Min. coordinate in the x-direction = 3.50822e-07 m, y-direction = -0.0451346 m.
Computing wall distances.

-------------------- Solver Preprocessing ( Zone 0 ) --------------------
Incompressible flow: rho_ref, vel_ref, and temp_ref
are based on the initial values, p_ref = rho_ref*vel_ref^2.
Force coefficients computed using initial values.
The reference area for force coeffs. is 1 m^2.
The reference length for force coeffs. is 1.00898 m.
The pressure is decomposed into thermodynamic and dynamic components.
The initial value of the dynamic pressure is 0.
Mach number: 0.0276747, computed using the Bulk modulus.
For external flows, the initial state is imposed at the far-field.
Angle of attack (deg): 14, computed using the initial velocity.
Side slip angle (deg): 0, computed using the initial velocity.
Reynolds number per meter: 594999, computed using initial values.
Reynolds number is a byproduct of inputs only (not used internally).
SI units only. The grid should be dimensional (meters).
No energy equation.

-- Models:
+------------------------------------------------------------------------------+
|          Viscosity Model|        Conductivity Model|              Fluid Model|
+------------------------------------------------------------------------------+
|       CONSTANT_VISCOSITY|          CONSTANT_PRANDTL|         CONSTANT_DENSITY|
+------------------------------------------------------------------------------+
-- Fluid properties:
+------------------------------------------------------------------------------+
|                  Name|    Dim. value|    Ref. value|      Unit|Non-dim. value|
+------------------------------------------------------------------------------+
|             Viscosity|      1.92e-05|        11.424|   N.s/m^2|   1.68067e-06|
+------------------------------------------------------------------------------+
|        Prandtl (Lam.)|             -|             -|         -|          0.72|
|       Prandtl (Turb.)|             -|             -|         -|           0.9|
+------------------------------------------------------------------------------+
|          Bulk Modulus|        142000|             1|        Pa|        142000|
+------------------------------------------------------------------------------+
-- Initial and free-stream conditions:
+------------------------------------------------------------------------------+
|                  Name|    Dim. value|    Ref. value|      Unit|Non-dim. value|
+------------------------------------------------------------------------------+
|      Dynamic Pressure|             0|       108.756|        Pa|             0|
|        Total Pressure|       54.3781|       108.756|        Pa|           0.5|
|               Density|           1.2|           1.2|    kg/m^3|             1|
|            Velocity-X|        9.2372|       9.51999|       m/s|      0.970296|
|            Velocity-Y|        2.3031|       9.51999|       m/s|      0.241923|
|    Velocity Magnitude|       9.51999|       9.51999|       m/s|             1|
+------------------------------------------------------------------------------+
|             Viscosity|      1.92e-05|        11.424|   N.s/m^2|   1.68067e-06|
|          Conductivity|             -|       3.59312|   W/m^2.K|             -|
|     Turb. Kin. Energy|       1.35945|       90.6301|   m^2/s^2|         0.015|
|     Spec. Dissipation|       8496.58|       9.51999|       1/s|       892.499|
+------------------------------------------------------------------------------+
|           Mach Number|             -|             -|         -|     0.0276747|
|       Reynolds Number|             -|             -|         -|        594999|
+------------------------------------------------------------------------------+
Initialize Jacobian structure (Navier-Stokes). MG level: 0.
Initialize Jacobian structure (SA model).

------------------- Numerics Preprocessing ( Zone 0 ) -------------------

----------------- Integration Preprocessing ( Zone 0 ) ------------------

------------------- Iteration Preprocessing ( Zone 0 ) ------------------
Euler/Navier-Stokes/RANS fluid iteration.

------------------------------ Begin Solver -----------------------------

Simulation Run using the Single-zone Driver
+-----------------------------------------------------------------------------+
|  Inner_Iter|     Min CFL|     Max CFL|      rms[P]|  Cauchy[CD]|          CD|
+-----------------------------------------------------------------------------+
|           0|  2.4000e+00|  2.4000e+00|   -4.544372|  1.0000e+00|    0.582657|
|          10|  1.4860e+01|  1.4860e+01|   -5.274027|  1.5213e-03|    0.869502|
|          20|  7.6675e+00|  7.6675e+00|   -5.462121|  1.5575e-03|    0.869628|
|          30|  3.9563e+00|  3.9563e+00|   -5.448511|  1.7001e-03|    0.839261|
|          40|  2.4496e+01|  2.4496e+01|   -5.408125|  1.8482e-03|    0.808836|
|          50|  1.2639e+01|  1.2639e+01|   -5.370085|  2.2282e-03|    0.736039|
|          60|  3.7741e+01|  3.7741e+01|   -5.330106|  3.0295e-03|    0.603820|
|          70|  1.9474e+01|  1.9474e+01|   -5.303989|  3.4100e-03|    0.549441|
|          80|  1.0048e+01|  1.0048e+01|   -5.282080|  4.0312e-03|    0.471255|
|          90|  5.1845e+00|  5.1845e+00|   -5.278314|  5.0518e-03|    0.366752|
|         100|  3.2101e+01|  3.2101e+01|   -5.302497|  5.8563e-03|    0.300714|
|         110|  7.9878e+00|  7.9878e+00|   -5.388036|  7.4950e-03|    0.201926|
|         120|  4.1216e+00|  4.1216e+00|   -5.409546|  8.8890e-03|    0.143548|
|         130|  2.5520e+01|  2.5520e+01|   -5.415951|  9.5377e-03|    0.122251|
|         140|  1.3168e+01|  1.3168e+01|   -5.420547|  1.0415e-02|    0.098529|
|         150|  3.9318e+01|  3.9318e+01|   -5.422961|  1.1288e-02|    0.076700|
|         160|  1.1740e+01|  1.1740e+01|   -5.434814|  1.1867e-02|    0.062243|
|         170|  6.0577e+00|  6.0577e+00|   -5.442062|  1.2670e-02|    0.042161|
|         180|  3.7508e+01|  3.7508e+01|   -5.434573|  1.3443e-02|    0.022825|
|         190|  1.9353e+01|  1.9353e+01|   -5.428336|  1.4297e-02|    0.001482|
|         200|  9.9859e+00|  9.9859e+00|   -5.431547|  1.5434e-02|   -0.026953|
+-----------------------------------------------------------------------+
|        File Writing Summary       |              Filename             |
+-----------------------------------------------------------------------+
|SU2 binary restart                 |restart_flow_G8.dat                |
|Paraview                           |flow_G8.vtu                        |
|Paraview surface                   |surface_flow_G8.vtu                |
+-----------------------------------------------------------------------+
+-----------------------------------------------------------------------------+
|  Inner_Iter|     Min CFL|     Max CFL|      rms[P]|  Cauchy[CD]|          CD|
+-----------------------------------------------------------------------------+
|         210|  5.1525e+00|  5.1525e+00|   -5.441656|  1.6284e-02|   -0.048196|
|         220|  3.1903e+01|  3.1903e+01|   -5.454333|  1.6384e-02|   -0.050049|
|         230|  1.6461e+01|  1.6461e+01|   -5.469087|  1.6822e-02|   -0.039099|
|         240|  8.4936e+00|  8.4936e+00|   -5.470278|  1.8359e-02|   -0.000655|
|         250|  4.3825e+01|  4.3825e+01|   -5.465316|  2.0722e-02|    0.058411|
|         260|  4.3825e+01|  4.3825e+01|   -5.520401|  2.3536e-02|    0.202185|
|         270|  4.3825e+01|  4.3825e+01|   -5.514966|  2.5008e-02|    0.297236|
|         280|  4.3825e+00|  4.3825e+00|   -5.530002|  2.5284e-02|    0.282104|
|         290|  2.7135e+01|  2.7135e+01|   -5.534355|  2.5432e-02|    0.262035|
|         300|  1.4001e+01|  1.4001e+01|   -5.539954|  2.5805e-02|    0.217649|
|         310|  7.2243e+00|  7.2243e+00|   -5.556995|  2.6352e-02|    0.156593|
|         320|  4.4731e+01|  4.4731e+01|   -5.573120|  2.7209e-02|    0.115605|
|         330|  1.6028e+01|  1.6028e+01|   -5.606801|  2.7884e-02|    0.082605|
|         340|  8.2701e+00|  8.2701e+00|   -5.619000|  2.7198e-02|    0.074292|
|         350|  5.1206e+01|  5.1206e+01|   -5.617520|  2.6776e-02|    0.083860|
|         360|  2.6421e+01|  2.6421e+01|   -5.614248|  2.5702e-02|    0.097983|
|         370|  1.3633e+01|  1.3633e+01|   -5.608160|  2.5022e-02|    0.117437|
|         380|  7.0342e+00|  7.0342e+00|   -5.598366|  2.5031e-02|    0.138678|
|         390|  4.3554e+01|  4.3554e+01|   -5.593350|  2.4440e-02|    0.148988|
|         400|  2.2473e+01|  2.2473e+01|   -5.598111|  2.3654e-02|    0.152310|
+-----------------------------------------------------------------------+
|        File Writing Summary       |              Filename             |
+-----------------------------------------------------------------------+
|SU2 binary restart                 |restart_flow_G8.dat                |
|Paraview                           |flow_G8.vtu                        |
|Paraview surface                   |surface_flow_G8.vtu                |
+-----------------------------------------------------------------------+
+-----------------------------------------------------------------------------+
|  Inner_Iter|     Min CFL|     Max CFL|      rms[P]|  Cauchy[CD]|          CD|
+-----------------------------------------------------------------------------+
|         410|  4.6600e+01|  4.6600e+01|   -5.641191|  2.3342e-02|    0.142569|
|         420|  2.0037e+01|  2.0037e+01|   -5.674207|  2.2691e-02|    0.137251|
|         430|  1.0339e+01|  1.0339e+01|   -5.706917|  2.2003e-02|    0.134346|
|         440|  4.4455e+01|  4.4455e+01|   -5.722837|  2.1297e-02|    0.139424|
|         450|  5.3345e+01|  5.3345e+01|   -5.720989|  2.0720e-02|    0.160552|
|         460|  2.7525e+01|  2.7525e+01|   -5.716141|  2.0018e-02|    0.166599|
|         470|  4.7563e+01|  4.7563e+01|   -5.720164|  2.0095e-02|    0.164436|
|         480|  4.7563e+01|  4.7563e+01|   -5.755678|  2.0405e-02|    0.136641|
|         490|  1.4202e+01|  1.4202e+01|   -5.805649|  1.9460e-02|    0.117992|
|         500|  5.0890e+01|  5.0890e+01|   -5.856539|  1.7658e-02|    0.102686|
|         510|  5.0890e+01|  5.0890e+01|   -5.913100|  1.3578e-02|    0.097770|
|         520|  2.1882e+01|  2.1882e+01|   -5.910306|  1.2196e-02|    0.100924|
|         530|  1.1290e+01|  1.1290e+01|   -5.902973|  1.2077e-02|    0.108808|
|         540|  4.8547e+01|  4.8547e+01|   -5.905064|  1.2212e-02|    0.121292|
|         550|  1.7395e+01|  1.7395e+01|   -5.937844|  1.1830e-02|    0.133203|
|         560|  8.9755e+00|  8.9755e+00|   -5.993085|  1.0742e-02|    0.142203|
|         570|  5.5574e+01|  5.5574e+01|   -6.052859|  9.6471e-03|    0.147362|
|         580|  2.8675e+01|  2.8675e+01|   -6.121288|  8.3867e-03|    0.148672|
|         590|  1.4796e+01|  1.4796e+01|   -6.192205|  8.0977e-03|    0.147033|
|         600|  7.6342e+00|  7.6342e+00|   -6.201710|  7.8420e-03|    0.142447|
+-----------------------------------------------------------------------+
|        File Writing Summary       |              Filename             |
+-----------------------------------------------------------------------+
|SU2 binary restart                 |restart_flow_G8.dat                |
|Paraview                           |flow_G8.vtu                        |
|Paraview surface                   |surface_flow_G8.vtu                |
+-----------------------------------------------------------------------+
+-----------------------------------------------------------------------------+
|  Inner_Iter|     Min CFL|     Max CFL|      rms[P]|  Cauchy[CD]|          CD|
+-----------------------------------------------------------------------------+
|         610|  4.7269e+01|  4.7269e+01|   -6.188289|  7.4143e-03|    0.137655|
|         620|  2.4390e+01|  2.4390e+01|   -6.174824|  6.8644e-03|    0.132144|
|         630|  1.2585e+01|  1.2585e+01|   -6.175449|  6.4199e-03|    0.125300|
|         640|  6.4934e+00|  6.4934e+00|   -6.203493|  6.4453e-03|    0.115969|
|         650|  4.0205e+01|  4.0205e+01|   -6.229203|  6.5792e-03|    0.109736|
|         660|  2.0745e+01|  2.0745e+01|   -6.284512|  6.6175e-03|    0.101755|
|         670|  8.9200e+00|  8.9200e+00|   -6.347773|  6.8411e-03|    0.092342|
|         680|  5.5230e+01|  5.5230e+01|   -6.354982|  6.8893e-03|    0.088991|
|         690|  6.6276e+01|  6.6276e+01|   -6.332625|  6.9859e-03|    0.094422|
|         700|  3.4197e+01|  3.4197e+01|   -6.317749|  6.6451e-03|    0.099913|
|         710|  1.7645e+01|  1.7645e+01|   -6.312373|  6.7943e-03|    0.107651|
|         720|  9.1044e+00|  9.1044e+00|   -6.335187|  6.9626e-03|    0.117393|
|         730|  5.6372e+01|  5.6372e+01|   -6.366129|  6.4244e-03|    0.123730|
|         740|  8.1176e+00|  8.1176e+00|   -6.498868|  6.0547e-03|    0.130876|
|         750|  5.0262e+01|  5.0262e+01|   -6.527648|  5.5083e-03|    0.131056|
|         760|  2.5934e+01|  2.5934e+01|   -6.547874|  5.2958e-03|    0.129665|
|         770|  1.3381e+01|  1.3381e+01|   -6.546660|  5.3061e-03|    0.125334|
|         780|  6.9045e+00|  6.9045e+00|   -6.535770|  5.2228e-03|    0.118773|
|         790|  4.2751e+01|  4.2751e+01|   -6.531628|  4.9680e-03|    0.113655|
|         800|  2.2059e+01|  2.2059e+01|   -6.532574|  4.8689e-03|    0.106204|
+-----------------------------------------------------------------------+
|        File Writing Summary       |              Filename             |
+-----------------------------------------------------------------------+
|SU2 binary restart                 |restart_flow_G8.dat                |
|Paraview                           |flow_G8.vtu                        |
|Paraview surface                   |surface_flow_G8.vtu                |
+-----------------------------------------------------------------------+
+-----------------------------------------------------------------------------+
|  Inner_Iter|     Min CFL|     Max CFL|      rms[P]|  Cauchy[CD]|          CD|
+-----------------------------------------------------------------------------+
|         810|  1.1382e+01|  1.1382e+01|   -6.531862|  4.9864e-03|    0.096605|
|         820|  5.8727e+01|  5.8727e+01|   -6.523781|  5.1231e-03|    0.089631|
|         830|  5.8727e+01|  5.8727e+01|   -6.549166|  5.2706e-03|    0.088561|
|         840|  3.0302e+01|  3.0302e+01|   -6.588487|  5.3428e-03|    0.091501|
|         850|  1.5635e+01|  1.5635e+01|   -6.666929|  5.4700e-03|    0.097856|
|         860|  8.0674e+00|  8.0674e+00|   -6.741563|  5.6596e-03|    0.106252|
|         870|  4.9951e+01|  4.9951e+01|   -6.734771|  5.6598e-03|    0.110715|
|         880|  2.5774e+01|  2.5774e+01|   -6.688682|  5.5590e-03|    0.113890|
|         890|  1.3299e+01|  1.3299e+01|   -6.627200|  5.3173e-03|    0.115887|
|         900|  6.8618e+00|  6.8618e+00|   -6.605932|  5.1176e-03|    0.115467|
|         910|  4.2487e+01|  4.2487e+01|   -6.612060|  4.8534e-03|    0.114325|
|         920|  2.1922e+01|  2.1922e+01|   -6.651453|  4.5548e-03|    0.112132|
|         930|  5.4549e+01|  5.4549e+01|   -6.749374|  4.6066e-03|    0.107055|
|         940|  5.4549e+01|  5.4549e+01|   -6.735633|  4.6342e-03|    0.100042|
|         950|  1.6288e+01|  1.6288e+01|   -6.669472|  4.5771e-03|    0.095978|
|         960|  5.8364e+01|  5.8364e+01|   -6.656869|  4.4136e-03|    0.092652|
|         970|  5.8364e+01|  5.8364e+01|   -6.770914|  4.1476e-03|    0.093265|
|         980|  5.8364e+01|  5.8364e+01|   -6.838985|  4.2049e-03|    0.099939|
|         990|  5.8364e+01|  5.8364e+01|   -6.775794|  4.2066e-03|    0.105752|
|        1000|  2.0913e+01|  2.0913e+01|   -6.794557|  4.2164e-03|    0.106375|
+-----------------------------------------------------------------------+
|        File Writing Summary       |              Filename             |
+-----------------------------------------------------------------------+
|SU2 binary restart                 |restart_flow_G8.dat                |
|Paraview                           |flow_G8.vtu                        |
|Paraview surface                   |surface_flow_G8.vtu                |
+-----------------------------------------------------------------------+
+-----------------------------------------------------------------------------+
|  Inner_Iter|     Min CFL|     Max CFL|      rms[P]|  Cauchy[CD]|          CD|
+-----------------------------------------------------------------------------+
|        1010|  1.0791e+01|  1.0791e+01|   -6.855132|  4.2092e-03|    0.105437|
|        1020|  5.5677e+01|  5.5677e+01|   -6.917793|  4.1582e-03|    0.103216|
|        1030|  5.5677e+01|  5.5677e+01|   -6.954162|  4.1750e-03|    0.097357|
|        1040|  6.6813e+01|  6.6813e+01|   -6.890312|  4.1790e-03|    0.092840|
|        1050|  3.4474e+01|  3.4474e+01|   -6.891451|  3.9465e-03|    0.091834|
|        1060|  5.9571e+01|  5.9571e+01|   -6.940305|  3.6038e-03|    0.091046|
|        1070|  5.9571e+01|  5.9571e+01|   -6.992096|  3.4029e-03|    0.092997|
|        1080|  5.9571e+01|  5.9571e+01|   -7.063118|  3.3742e-03|    0.096850|
|        1090|  8.5782e+00|  8.5782e+00|   -7.208200|  3.3694e-03|    0.099672|
|        1100|  5.3114e+01|  5.3114e+01|   -7.240434|  3.1304e-03|    0.100051|
|        1110|  2.7406e+01|  2.7406e+01|   -7.251463|  2.8119e-03|    0.099842|
|        1120|  1.4141e+01|  1.4141e+01|   -7.225647|  2.6961e-03|    0.098632|
|        1130|  7.2963e+00|  7.2963e+00|   -7.193505|  2.6801e-03|    0.096211|
|        1140|  4.5177e+01|  4.5177e+01|   -7.176041|  2.6679e-03|    0.094781|
|        1150|  1.3490e+01|  1.3490e+01|   -7.150490|  2.7577e-03|    0.091986|
|        1160|  6.9604e+00|  6.9604e+00|   -7.132334|  2.7890e-03|    0.090208|
|        1170|  4.3097e+01|  4.3097e+01|   -7.124917|  2.7340e-03|    0.089643|
|        1180|  7.4471e+00|  7.4471e+00|   -7.156266|  2.5752e-03|    0.089680|
|        1190|  4.6111e+01|  4.6111e+01|   -7.192621|  2.3232e-03|    0.090179|
|        1200|  2.3792e+01|  2.3792e+01|   -7.247278|  2.1977e-03|    0.091103|
+-----------------------------------------------------------------------+
|        File Writing Summary       |              Filename             |
+-----------------------------------------------------------------------+
|SU2 binary restart                 |restart_flow_G8.dat                |
|Paraview                           |flow_G8.vtu                        |
|Paraview surface                   |surface_flow_G8.vtu                |
+-----------------------------------------------------------------------+
+-----------------------------------------------------------------------------+
|  Inner_Iter|     Min CFL|     Max CFL|      rms[P]|  Cauchy[CD]|          CD|
+-----------------------------------------------------------------------------+
|        1210|  1.2276e+01|  1.2276e+01|   -7.303954|  2.1228e-03|    0.092560|
|        1220|  6.3342e+01|  6.3342e+01|   -7.315236|  2.1002e-03|    0.093959|
|        1230|  1.8914e+01|  1.8914e+01|   -7.303969|  1.8861e-03|    0.095283|
|        1240|  9.7592e+00|  9.7592e+00|   -7.306060|  1.6833e-03|    0.095847|
|        1250|  6.0426e+01|  6.0426e+01|   -7.317375|  1.6641e-03|    0.095858|
|        1260|  3.1179e+01|  3.1179e+01|   -7.336349|  1.6432e-03|    0.095494|
|        1270|  1.6088e+01|  1.6088e+01|   -7.338957|  1.5981e-03|    0.094490|
|        1280|  6.9173e+01|  6.9173e+01|   -7.312247|  1.4250e-03|    0.093001|
|        1290|  2.0655e+01|  2.0655e+01|   -7.281203|  1.2912e-03|    0.091827|
|        1300|  1.0658e+01|  1.0658e+01|   -7.262524|  1.2853e-03|    0.090970|
|        1310|  6.5989e+01|  6.5989e+01|   -7.255848|  1.2626e-03|    0.090657|
|        1320|  6.5989e+01|  6.5989e+01|   -7.243004|  1.2054e-03|    0.091123|
|        1330|  3.4049e+01|  3.4049e+01|   -7.245907|  1.0720e-03|    0.091641|
|        1340|  1.7568e+01|  1.7568e+01|   -7.255804|  9.8538e-04|    0.092296|
|        1350|  9.0649e+00|  9.0649e+00|   -7.275341|  9.9998e-04|    0.093041|
|        1360|  5.6128e+01|  5.6128e+01|   -7.292129|  1.0064e-03|    0.093411|
|        1370|  2.0112e+01|  2.0112e+01|   -7.323965|  9.7186e-04|    0.093757|
|        1380|  1.0377e+01|  1.0377e+01|   -7.349153|  8.7791e-04|    0.093756|
|        1390|  6.4252e+01|  6.4252e+01|   -7.367948|  8.2737e-04|    0.093589|
|        1400|  3.3153e+01|  3.3153e+01|   -7.396652|  7.2630e-04|    0.093321|
+-----------------------------------------------------------------------+
|        File Writing Summary       |              Filename             |
+-----------------------------------------------------------------------+
|SU2 binary restart                 |restart_flow_G8.dat                |
|Paraview                           |flow_G8.vtu                        |
|Paraview surface                   |surface_flow_G8.vtu                |
+-----------------------------------------------------------------------+
+-----------------------------------------------------------------------------+
|  Inner_Iter|     Min CFL|     Max CFL|      rms[P]|  Cauchy[CD]|          CD|
+-----------------------------------------------------------------------------+
|        1410|  1.7106e+01|  1.7106e+01|   -7.429806|  6.7327e-04|    0.092869|
|        1420|  7.3553e+01|  7.3553e+01|   -7.443539|  6.6989e-04|    0.092388|
|        1430|  7.3553e+01|  7.3553e+01|   -7.427987|  6.5780e-04|    0.092016|
|        1440|  7.3553e+01|  7.3553e+01|   -7.407573|  6.4700e-04|    0.092242|
|        1450|  1.0592e+01|  1.0592e+01|   -7.402511|  6.2747e-04|    0.092679|
|        1460|  6.5581e+01|  6.5581e+01|   -7.410435|  5.7485e-04|    0.092820|
|        1470|  3.3838e+01|  3.3838e+01|   -7.418947|  5.2271e-04|    0.092916|
|        1480|  1.7460e+01|  1.7460e+01|   -7.431312|  4.7116e-04|    0.092949|
|        1490|  9.0089e+00|  9.0089e+00|   -7.440102|  4.5268e-04|    0.092846|
|        1500|  5.5780e+01|  5.5780e+01|   -7.450249|  4.5218e-04|    0.092751|
|        1510|  2.8781e+01|  2.8781e+01|   -7.455190|  4.4331e-04|    0.092608|
|        1520|  1.4851e+01|  1.4851e+01|   -7.456553|  4.1040e-04|    0.092427|
|        1530|  7.6626e+01|  7.6626e+01|   -7.457387|  3.5620e-04|    0.092292|
|        1540|  7.6626e+01|  7.6626e+01|   -7.462502|  3.1384e-04|    0.092178|
|        1550|  7.6626e+01|  7.6626e+01|   -7.480532|  2.7996e-04|    0.092170|
|        1560|  7.6626e+01|  7.6626e+01|   -7.517498|  2.6905e-04|    0.092130|
|        1570|  7.6626e+01|  7.6626e+01|   -7.567596|  2.5510e-04|    0.091957|
|        1580|  2.2880e+01|  2.2880e+01|   -7.600085|  2.3958e-04|    0.091828|
|        1590|  1.1806e+01|  1.1806e+01|   -7.625183|  2.1913e-04|    0.091684|
|        1600|  7.3098e+01|  7.3098e+01|   -7.641298|  1.9363e-04|    0.091576|
+-----------------------------------------------------------------------+
|        File Writing Summary       |              Filename             |
+-----------------------------------------------------------------------+
|SU2 binary restart                 |restart_flow_G8.dat                |
|Paraview                           |flow_G8.vtu                        |
|Paraview surface                   |surface_flow_G8.vtu                |
+-----------------------------------------------------------------------+
+-----------------------------------------------------------------------------+
|  Inner_Iter|     Min CFL|     Max CFL|      rms[P]|  Cauchy[CD]|          CD|
+-----------------------------------------------------------------------------+
|        1610|  7.3098e+01|  7.3098e+01|   -7.678591|  1.8699e-04|    0.091372|
|        1620|  7.3098e+01|  7.3098e+01|   -7.690723|  1.7897e-04|    0.091226|
|        1630|  1.0526e+01|  1.0526e+01|   -7.674584|  1.8032e-04|    0.091120|
|        1640|  6.5175e+01|  6.5175e+01|   -7.663791|  1.7588e-04|    0.091065|
|        1650|  3.3629e+01|  3.3629e+01|   -7.650836|  1.6741e-04|    0.091009|
|        1660|  6.9733e+01|  6.9733e+01|   -7.627111|  1.5544e-04|    0.090856|
|        1670|  6.9733e+01|  6.9733e+01|   -7.605243|  1.4479e-04|    0.090641|
|        1680|  6.9733e+01|  6.9733e+01|   -7.592969|  1.3805e-04|    0.090437|
|        1690|  6.9733e+01|  6.9733e+01|   -7.587426|  1.3527e-04|    0.090277|
|        1700|  6.9733e+01|  6.9733e+01|   -7.585776|  1.2290e-04|    0.090150|
|        1710|  6.9733e+01|  6.9733e+01|   -7.588352|  1.2218e-04|    0.090028|
|        1720|  6.9733e+01|  6.9733e+01|   -7.595649|  1.2372e-04|    0.089893|
|        1730|  6.9733e+01|  6.9733e+01|   -7.608450|  1.2804e-04|    0.089750|
|        1740|  6.9733e+01|  6.9733e+01|   -7.626829|  1.2920e-04|    0.089619|
|        1750|  6.9733e+01|  6.9733e+01|   -7.649711|  1.2938e-04|    0.089519|
|        1760|  6.9733e+01|  6.9733e+01|   -7.675596|  1.2636e-04|    0.089451|
|        1770|  1.2050e+01|  1.2050e+01|   -7.701376|  1.2095e-04|    0.089406|
|        1780|  7.4609e+01|  7.4609e+01|   -7.712703|  1.1669e-04|    0.089377|
|        1790|  3.8497e+01|  3.8497e+01|   -7.723694|  1.1282e-04|    0.089360|
|        1800|  1.9864e+01|  1.9864e+01|   -7.737334|  1.1358e-04|    0.089330|
+-----------------------------------------------------------------------+
|        File Writing Summary       |              Filename             |
+-----------------------------------------------------------------------+
|SU2 binary restart                 |restart_flow_G8.dat                |
|Paraview                           |flow_G8.vtu                        |
|Paraview surface                   |surface_flow_G8.vtu                |
+-----------------------------------------------------------------------+
+-----------------------------------------------------------------------------+
|  Inner_Iter|     Min CFL|     Max CFL|      rms[P]|  Cauchy[CD]|          CD|
+-----------------------------------------------------------------------------+
|        1810|  7.1175e+01|  7.1175e+01|   -7.753349|  1.1368e-04|    0.089288|
|        1820|  7.1175e+01|  7.1175e+01|   -7.784856|  1.0891e-04|    0.089235|
|        1830|  1.0249e+01|  1.0249e+01|   -7.818798|  1.0484e-04|    0.089207|
|        1840|  6.3460e+01|  6.3460e+01|   -7.832915|  9.9398e-05|    0.089199|
|        1850|  3.2744e+01|  3.2744e+01|   -7.847935|  9.5182e-05|    0.089198|
|        1860|  1.6895e+01|  1.6895e+01|   -7.866186|  8.7169e-05|    0.089198|
|        1870|  7.2646e+01|  7.2646e+01|   -7.883813|  8.1496e-05|    0.089197|
|        1880|  7.2646e+01|  7.2646e+01|   -7.919959|  7.7441e-05|    0.089195|
|        1890|  3.1237e+01|  3.1237e+01|   -7.942260|  7.5324e-05|    0.089192|
|        1900|  1.6117e+01|  1.6117e+01|   -7.959909|  7.3332e-05|    0.089187|
|        1910|  8.3162e+00|  8.3162e+00|   -7.975964|  6.7375e-05|    0.089187|
|        1920|  5.1492e+01|  5.1492e+01|   -7.990583|  5.8908e-05|    0.089189|
|        1930|  7.4148e+01|  7.4148e+01|   -8.019795|  5.1148e-05|    0.089197|
|        1940|  7.4148e+01|  7.4148e+01|   -8.049471|  4.5257e-05|    0.089210|
|        1950|  7.4148e+01|  7.4148e+01|   -8.064618|  4.0998e-05|    0.089230|
|        1960|  7.4148e+01|  7.4148e+01|   -8.060284|  3.6865e-05|    0.089250|
|        1970|  7.4148e+01|  7.4148e+01|   -8.039385|  3.1954e-05|    0.089262|
|        1980|  1.2813e+01|  1.2813e+01|   -8.011932|  2.6650e-05|    0.089272|
|        1990|  7.9333e+01|  7.9333e+01|   -7.999732|  2.1518e-05|    0.089273|
|        2000|  4.0934e+01|  4.0934e+01|   -7.987784|  1.7728e-05|    0.089279|
+-----------------------------------------------------------------------+
|        File Writing Summary       |              Filename             |
+-----------------------------------------------------------------------+
|SU2 binary restart                 |restart_flow_G8.dat                |
|Paraview                           |flow_G8.vtu                        |
|Paraview surface                   |surface_flow_G8.vtu                |
+-----------------------------------------------------------------------+
+-----------------------------------------------------------------------------+
|  Inner_Iter|     Min CFL|     Max CFL|      rms[P]|  Cauchy[CD]|          CD|
+-----------------------------------------------------------------------------+
|        2010|  2.1121e+01|  2.1121e+01|   -7.970230|  1.5309e-05|    0.089286|
|        2020|  7.5681e+01|  7.5681e+01|   -7.950614|  1.3740e-05|    0.089291|
|        2030|  7.5681e+01|  7.5681e+01|   -7.927483|  1.2932e-05|    0.089299|
|        2040|  7.5681e+01|  7.5681e+01|   -7.915010|  1.2697e-05|    0.089312|
|        2050|  7.5681e+01|  7.5681e+01|   -7.913086|  1.2038e-05|    0.089324|
|        2060|  7.5681e+01|  7.5681e+01|   -7.921586|  1.0538e-05|    0.089329|
|        2070|  7.5681e+01|  7.5681e+01|   -7.940857|  8.4459e-06|    0.089328|
|        2080|  7.5681e+01|  7.5681e+01|   -7.969980|  7.3671e-06|    0.089327|
|        2090|  3.2541e+01|  3.2541e+01|   -7.987572|  7.0675e-06|    0.089327|
|        2100|  1.6791e+01|  1.6791e+01|   -8.005710|  7.1191e-06|    0.089326|
|        2110|  7.2197e+01|  7.2197e+01|   -8.024204|  7.0641e-06|    0.089325|
|        2120|  7.2197e+01|  7.2197e+01|   -8.066421|  6.9995e-06|    0.089323|
|        2130|  1.7965e+01|  1.7965e+01|   -8.096617|  6.8475e-06|    0.089323|
|        2140|  9.2695e+00|  9.2695e+00|   -8.118716|  6.8484e-06|    0.089322|
|        2150|  5.7394e+01|  5.7394e+01|   -8.132581|  6.6645e-06|    0.089322|
|        2160|  6.8873e+01|  6.8873e+01|   -8.167771|  6.5890e-06|    0.089322|
|        2170|  6.8873e+01|  6.8873e+01|   -8.200743|  6.6276e-06|    0.089318|
|        2180|  6.8873e+01|  6.8873e+01|   -8.226418|  6.2943e-06|    0.089316|
|        2190|  3.5537e+01|  3.5537e+01|   -8.235537|  5.8047e-06|    0.089316|
|        2200|  1.8336e+01|  1.8336e+01|   -8.243730|  5.0671e-06|    0.089316|
+-----------------------------------------------------------------------+
|        File Writing Summary       |              Filename             |
+-----------------------------------------------------------------------+
|SU2 binary restart                 |restart_flow_G8.dat                |
|Paraview                           |flow_G8.vtu                        |
|Paraview surface                   |surface_flow_G8.vtu                |
+-----------------------------------------------------------------------+
+-----------------------------------------------------------------------------+
|  Inner_Iter|     Min CFL|     Max CFL|      rms[P]|  Cauchy[CD]|          CD|
+-----------------------------------------------------------------------------+
|        2210|  6.5702e+01|  6.5702e+01|   -8.250242|  4.3766e-06|    0.089317|
|        2220|  6.5702e+01|  6.5702e+01|   -8.261518|  3.9528e-06|    0.089319|
|        2230|  6.5702e+01|  6.5702e+01|   -8.269393|  3.5979e-06|    0.089318|
|        2240|  6.5702e+01|  6.5702e+01|   -8.275516|  3.6127e-06|    0.089321|
|        2250|  6.5702e+01|  6.5702e+01|   -8.281352|  3.6581e-06|    0.089328|
|        2260|  6.5702e+01|  6.5702e+01|   -8.287224|  3.6240e-06|    0.089334|
|        2270|  6.5702e+01|  6.5702e+01|   -8.293156|  3.6345e-06|    0.089341|
|        2280|  6.5702e+01|  6.5702e+01|   -8.298784|  3.6484e-06|    0.089349|
|        2290|  6.5702e+01|  6.5702e+01|   -8.304916|  3.5657e-06|    0.089359|
|        2300|  6.5702e+01|  6.5702e+01|   -8.311800|  3.4787e-06|    0.089370|
|        2310|  6.5702e+01|  6.5702e+01|   -8.319458|  3.7578e-06|    0.089382|
|        2320|  6.5702e+01|  6.5702e+01|   -8.328107|  4.2681e-06|    0.089395|
|        2330|  6.5702e+01|  6.5702e+01|   -8.338334|  4.8349e-06|    0.089410|
|        2340|  6.5702e+01|  6.5702e+01|   -8.350864|  5.4145e-06|    0.089425|
|        2350|  6.5702e+01|  6.5702e+01|   -8.366352|  5.8939e-06|    0.089441|
|        2360|  6.5702e+01|  6.5702e+01|   -8.385287|  6.4376e-06|    0.089457|
|        2370|  6.5702e+01|  6.5702e+01|   -8.407957|  7.0322e-06|    0.089474|
|        2380|  6.5702e+01|  6.5702e+01|   -8.434240|  7.6915e-06|    0.089491|
|        2390|  6.5702e+01|  6.5702e+01|   -8.463264|  8.2884e-06|    0.089509|
|        2400|  2.3542e+01|  2.3542e+01|   -8.481061|  8.5237e-06|    0.089516|
+-----------------------------------------------------------------------+
|        File Writing Summary       |              Filename             |
+-----------------------------------------------------------------------+
|SU2 binary restart                 |restart_flow_G8.dat                |
|Paraview                           |flow_G8.vtu                        |
|Paraview surface                   |surface_flow_G8.vtu                |
+-----------------------------------------------------------------------+
+-----------------------------------------------------------------------------+
|  Inner_Iter|     Min CFL|     Max CFL|      rms[P]|  Cauchy[CD]|          CD|
+-----------------------------------------------------------------------------+
|        2410|  1.2147e+01|  1.2147e+01|   -8.495970|  8.7473e-06|    0.089524|
|        2420|  6.2678e+01|  6.2678e+01|   -8.507068|  8.9190e-06|    0.089532|
|        2430|  6.2678e+01|  6.2678e+01|   -8.530568|  9.5363e-06|    0.089549|
|        2440|  6.2678e+01|  6.2678e+01|   -8.551124|  1.0152e-05|    0.089565|
|        2450|  6.2678e+01|  6.2678e+01|   -8.564135|  1.0743e-05|    0.089582|
|        2460|  6.2678e+01|  6.2678e+01|   -8.568449|  1.1362e-05|    0.089600|
|        2470|  6.2678e+01|  6.2678e+01|   -8.566251|  1.1986e-05|    0.089617|
|        2480|  6.2678e+01|  6.2678e+01|   -8.560440|  1.2600e-05|    0.089633|
|        2490|  6.2678e+01|  6.2678e+01|   -8.554013|  1.3072e-05|    0.089648|
|        2500|  6.2678e+01|  6.2678e+01|   -8.548953|  1.3421e-05|    0.089664|
|        2510|  6.2678e+01|  6.2678e+01|   -8.547086|  1.3792e-05|    0.089679|
|        2520|  6.2678e+01|  6.2678e+01|   -8.549812|  1.4149e-05|    0.089695|
|        2530|  6.2678e+01|  6.2678e+01|   -8.557471|  1.4423e-05|    0.089710|
|        2540|  1.0831e+01|  1.0831e+01|   -8.568709|  1.4477e-05|    0.089721|
|        2550|  6.7061e+01|  6.7061e+01|   -8.574616|  1.4300e-05|    0.089727|
|        2560|  3.4602e+01|  3.4602e+01|   -8.580911|  1.4035e-05|    0.089732|
|        2570|  5.9792e+01|  5.9792e+01|   -8.592764|  1.3986e-05|    0.089745|
|        2580|  5.9792e+01|  5.9792e+01|   -8.612865|  1.3907e-05|    0.089758|
|        2590|  5.9792e+01|  5.9792e+01|   -8.634873|  1.3834e-05|    0.089771|
|        2600|  5.9792e+01|  5.9792e+01|   -8.658749|  1.3775e-05|    0.089785|
+-----------------------------------------------------------------------+
|        File Writing Summary       |              Filename             |
+-----------------------------------------------------------------------+
|SU2 binary restart                 |restart_flow_G8.dat                |
|Paraview                           |flow_G8.vtu                        |
|Paraview surface                   |surface_flow_G8.vtu                |
+-----------------------------------------------------------------------+
+-----------------------------------------------------------------------------+
|  Inner_Iter|     Min CFL|     Max CFL|      rms[P]|  Cauchy[CD]|          CD|
+-----------------------------------------------------------------------------+
|        2610|  5.9792e+01|  5.9792e+01|   -8.683007|  1.3695e-05|    0.089799|
|        2620|  3.0851e+01|  3.0851e+01|   -8.694512|  1.3186e-05|    0.089804|
|        2630|  1.5919e+01|  1.5919e+01|   -8.705750|  1.2735e-05|    0.089810|
|        2640|  5.7039e+01|  5.7039e+01|   -8.716580|  1.2372e-05|    0.089818|
|        2650|  5.7039e+01|  5.7039e+01|   -8.737078|  1.2560e-05|    0.089830|
|        2660|  5.7039e+01|  5.7039e+01|   -8.757101|  1.2715e-05|    0.089842|
|        2670|  5.7039e+01|  5.7039e+01|   -8.775277|  1.2883e-05|    0.089855|
|        2680|  5.7039e+01|  5.7039e+01|   -8.792427|  1.2713e-05|    0.089867|
|        2690|  5.7039e+01|  5.7039e+01|   -8.807754|  1.2586e-05|    0.089880|
|        2700|  5.7039e+01|  5.7039e+01|   -8.821728|  1.2421e-05|    0.089893|
|        2710|  5.7039e+01|  5.7039e+01|   -8.834368|  1.2214e-05|    0.089905|
|        2720|  5.7039e+01|  5.7039e+01|   -8.845506|  1.2008e-05|    0.089917|
|        2730|  5.7039e+01|  5.7039e+01|   -8.855640|  1.1841e-05|    0.089929|
|        2740|  9.8564e+00|  9.8564e+00|   -8.865561|  1.1578e-05|    0.089938|
|        2750|  6.1028e+01|  6.1028e+01|   -8.869424|  1.1156e-05|    0.089943|
|        2760|  3.1489e+01|  3.1489e+01|   -8.873530|  1.0692e-05|    0.089947|
|        2770|  5.4413e+01|  5.4413e+01|   -8.876134|  1.0496e-05|    0.089957|
|        2780|  5.4413e+01|  5.4413e+01|   -8.883450|  1.0344e-05|    0.089968|
|        2790|  5.4413e+01|  5.4413e+01|   -8.890421|  1.0348e-05|    0.089980|
|        2800|  5.4413e+01|  5.4413e+01|   -8.896802|  1.0560e-05|    0.089991|
+-----------------------------------------------------------------------+
|        File Writing Summary       |              Filename             |
+-----------------------------------------------------------------------+
|SU2 binary restart                 |restart_flow_G8.dat                |
|Paraview                           |flow_G8.vtu                        |
|Paraview surface                   |surface_flow_G8.vtu                |
+-----------------------------------------------------------------------+
+-----------------------------------------------------------------------------+
|  Inner_Iter|     Min CFL|     Max CFL|      rms[P]|  Cauchy[CD]|          CD|
+-----------------------------------------------------------------------------+
|        2810|  5.4413e+01|  5.4413e+01|   -8.903125|  1.0808e-05|    0.090003|
|        2820|  5.4413e+01|  5.4413e+01|   -8.909360|  1.0751e-05|    0.090014|
|        2830|  5.4413e+01|  5.4413e+01|   -8.916113|  1.0673e-05|    0.090025|
|        2840|  5.4413e+01|  5.4413e+01|   -8.923891|  1.0578e-05|    0.090036|
|        2850|  5.4413e+01|  5.4413e+01|   -8.933033|  1.0453e-05|    0.090046|
|        2860|  5.4413e+01|  5.4413e+01|   -8.944206|  1.0315e-05|    0.090057|
|        2870|  5.4413e+01|  5.4413e+01|   -8.956525|  1.0575e-05|    0.090068|
|        2880|  2.3397e+01|  2.3397e+01|   -8.965376|  1.0496e-05|    0.090072|
|        2890|  1.2072e+01|  1.2072e+01|   -8.972149|  1.0357e-05|    0.090077|
|        2900|  5.1908e+01|  5.1908e+01|   -8.976957|  1.0093e-05|    0.090083|
|        2910|  5.1908e+01|  5.1908e+01|   -8.989326|  1.0030e-05|    0.090093|
|        2920|  5.1908e+01|  5.1908e+01|   -9.003547|  9.9297e-06|    0.090103|
|        2930|  5.1908e+01|  5.1908e+01|   -9.017832|  9.8143e-06|    0.090113|
|        2940|  5.1908e+01|  5.1908e+01|   -9.031679|  9.6994e-06|    0.090122|
|        2950|  5.1908e+01|  5.1908e+01|   -9.044638|  9.5875e-06|    0.090132|
|        2960|  5.1908e+01|  5.1908e+01|   -9.056270|  9.4802e-06|    0.090142|
|        2970|  5.1908e+01|  5.1908e+01|   -9.066096|  9.3811e-06|    0.090152|
|        2980|  1.8600e+01|  1.8600e+01|   -9.073232|  9.0689e-06|    0.090156|
|        2990|  9.5970e+00|  9.5970e+00|   -9.077333|  8.8993e-06|    0.090160|
|        3000|  4.9519e+01|  4.9519e+01|   -9.079360|  8.8805e-06|    0.090165|
+-----------------------------------------------------------------------+
|        File Writing Summary       |              Filename             |
+-----------------------------------------------------------------------+
|SU2 binary restart                 |restart_flow_G8.dat                |
|Paraview                           |flow_G8.vtu                        |
|Paraview surface                   |surface_flow_G8.vtu                |
+-----------------------------------------------------------------------+
+-----------------------------------------------------------------------------+
|  Inner_Iter|     Min CFL|     Max CFL|      rms[P]|  Cauchy[CD]|          CD|
+-----------------------------------------------------------------------------+
|        3010|  4.9519e+01|  4.9519e+01|   -9.082153|  9.0797e-06|    0.090174|
|        3020|  4.9519e+01|  4.9519e+01|   -9.086339|  9.0165e-06|    0.090182|
|        3030|  4.9519e+01|  4.9519e+01|   -9.089741|  8.9063e-06|    0.090191|
|        3040|  4.9519e+01|  4.9519e+01|   -9.093220|  8.7954e-06|    0.090200|
|        3050|  4.9519e+01|  4.9519e+01|   -9.097287|  8.6926e-06|    0.090208|
|        3060|  4.9519e+01|  4.9519e+01|   -9.102028|  8.5936e-06|    0.090217|
|        3070|  4.9519e+01|  4.9519e+01|   -9.107204|  8.4981e-06|    0.090226|
|        3080|  4.9519e+01|  4.9519e+01|   -9.112927|  8.4039e-06|    0.090235|
|        3090|  4.9519e+01|  4.9519e+01|   -9.119504|  8.3121e-06|    0.090244|
|        3100|  4.9519e+01|  4.9519e+01|   -9.127028|  8.2203e-06|    0.090252|
|        3110|  4.9519e+01|  4.9519e+01|   -9.135190|  8.1238e-06|    0.090260|
|        3120|  4.9519e+01|  4.9519e+01|   -9.143801|  8.0287e-06|    0.090269|
|        3130|  4.9519e+01|  4.9519e+01|   -9.152830|  8.2110e-06|    0.090277|
|        3140|  4.9519e+01|  4.9519e+01|   -9.162317|  8.3590e-06|    0.090286|
|        3150|  2.1292e+01|  2.1292e+01|   -9.169297|  8.2552e-06|    0.090289|
|        3160|  1.0986e+01|  1.0986e+01|   -9.174586|  8.0087e-06|    0.090293|
|        3170|  4.7239e+01|  4.7239e+01|   -9.177758|  7.8040e-06|    0.090298|
|        3180|  4.7239e+01|  4.7239e+01|   -9.185500|  7.7385e-06|    0.090306|
|        3190|  4.7239e+01|  4.7239e+01|   -9.194568|  7.6667e-06|    0.090314|
|        3200|  4.7239e+01|  4.7239e+01|   -9.203147|  7.5908e-06|    0.090322|
+-----------------------------------------------------------------------+
|        File Writing Summary       |              Filename             |
+-----------------------------------------------------------------------+
|SU2 binary restart                 |restart_flow_G8.dat                |
|Paraview                           |flow_G8.vtu                        |
|Paraview surface                   |surface_flow_G8.vtu                |
+-----------------------------------------------------------------------+
+-----------------------------------------------------------------------------+
|  Inner_Iter|     Min CFL|     Max CFL|      rms[P]|  Cauchy[CD]|          CD|
+-----------------------------------------------------------------------------+
|        3210|  4.7239e+01|  4.7239e+01|   -9.211457|  7.5193e-06|    0.090330|
|        3220|  4.7239e+01|  4.7239e+01|   -9.220077|  7.4575e-06|    0.090338|
|        3230|  4.7239e+01|  4.7239e+01|   -9.228503|  7.6192e-06|    0.090346|
|        3240|  4.7239e+01|  4.7239e+01|   -9.236490|  7.7662e-06|    0.090354|
|        3250|  4.7239e+01|  4.7239e+01|   -9.244339|  7.9124e-06|    0.090362|
|        3260|  4.7239e+01|  4.7239e+01|   -9.251928|  7.8726e-06|    0.090370|
|        3270|  4.7239e+01|  4.7239e+01|   -9.259400|  7.8400e-06|    0.090378|
|        3280|  4.7239e+01|  4.7239e+01|   -9.266792|  7.8103e-06|    0.090386|
|        3290|  4.7239e+01|  4.7239e+01|   -9.273932|  7.7804e-06|    0.090394|
|        3300|  4.7239e+01|  4.7239e+01|   -9.280887|  7.7435e-06|    0.090402|
|        3310|  1.6927e+01|  1.6927e+01|   -9.287305|  7.5233e-06|    0.090405|
|        3320|  8.7337e+00|  8.7337e+00|   -9.291250|  7.3234e-06|    0.090409|
|        3330|  4.5064e+01|  4.5064e+01|   -9.293600|  7.1262e-06|    0.090413|
|        3340|  4.5064e+01|  4.5064e+01|   -9.297786|  7.0859e-06|    0.090421|
|        3350|  4.5064e+01|  4.5064e+01|   -9.304552|  7.0482e-06|    0.090428|
|        3360|  4.5064e+01|  4.5064e+01|   -9.311163|  7.0077e-06|    0.090436|
|        3370|  4.5064e+01|  4.5064e+01|   -9.317329|  6.9646e-06|    0.090443|
|        3380|  4.5064e+01|  4.5064e+01|   -9.323453|  6.9192e-06|    0.090450|
|        3390|  4.5064e+01|  4.5064e+01|   -9.329696|  6.8732e-06|    0.090458|
|        3400|  4.5064e+01|  4.5064e+01|   -9.335802|  7.0423e-06|    0.090465|
+-----------------------------------------------------------------------+
|        File Writing Summary       |              Filename             |
+-----------------------------------------------------------------------+
|SU2 binary restart                 |restart_flow_G8.dat                |
|Paraview                           |flow_G8.vtu                        |
|Paraview surface                   |surface_flow_G8.vtu                |
+-----------------------------------------------------------------------+
+-----------------------------------------------------------------------------+
|  Inner_Iter|     Min CFL|     Max CFL|      rms[P]|  Cauchy[CD]|          CD|
+-----------------------------------------------------------------------------+
|        3410|  4.5064e+01|  4.5064e+01|   -9.341826|  7.1778e-06|    0.090473|
|        3420|  4.5064e+01|  4.5064e+01|   -9.347918|  7.2830e-06|    0.090480|
|        3430|  4.5064e+01|  4.5064e+01|   -9.354177|  7.2457e-06|    0.090487|
|        3440|  4.5064e+01|  4.5064e+01|   -9.360608|  7.2136e-06|    0.090494|
|        3450|  4.5064e+01|  4.5064e+01|   -9.367072|  7.1830e-06|    0.090502|
|        3460|  4.5064e+01|  4.5064e+01|   -9.373406|  7.1514e-06|    0.090509|
|        3470|  4.5064e+01|  4.5064e+01|   -9.379542|  7.1149e-06|    0.090516|
|        3480|  4.5064e+01|  4.5064e+01|   -9.385599|  7.0732e-06|    0.090523|
|        3490|  4.5064e+01|  4.5064e+01|   -9.391692|  7.0295e-06|    0.090530|
|        3500|  4.5064e+01|  4.5064e+01|   -9.397766|  6.9880e-06|    0.090537|
|        3510|  1.1213e+01|  1.1213e+01|   -9.404270|  6.8316e-06|    0.090541|
|        3520|  5.7859e+00|  5.7859e+00|   -9.405618|  6.6622e-06|    0.090545|
|        3530|  3.5824e+01|  3.5824e+01|   -9.410181|  6.4395e-06|    0.090547|
|        3540|  4.2989e+01|  4.2989e+01|   -9.412156|  6.3815e-06|    0.090554|
|        3550|  4.2989e+01|  4.2989e+01|   -9.417194|  6.3288e-06|    0.090560|
|        3560|  4.2989e+01|  4.2989e+01|   -9.422362|  6.4524e-06|    0.090567|
|        3570|  4.2989e+01|  4.2989e+01|   -9.427137|  6.5575e-06|    0.090573|
|        3580|  4.2989e+01|  4.2989e+01|   -9.431741|  6.6669e-06|    0.090580|
|        3590|  4.2989e+01|  4.2989e+01|   -9.436313|  6.6271e-06|    0.090586|
|        3600|  4.2989e+01|  4.2989e+01|   -9.440850|  6.5861e-06|    0.090593|
+-----------------------------------------------------------------------+
|        File Writing Summary       |              Filename             |
+-----------------------------------------------------------------------+
|SU2 binary restart                 |restart_flow_G8.dat                |
|Paraview                           |flow_G8.vtu                        |
|Paraview surface                   |surface_flow_G8.vtu                |
+-----------------------------------------------------------------------+
+-----------------------------------------------------------------------------+
|  Inner_Iter|     Min CFL|     Max CFL|      rms[P]|  Cauchy[CD]|          CD|
+-----------------------------------------------------------------------------+
|        3610|  4.2989e+01|  4.2989e+01|   -9.445196|  6.5456e-06|    0.090599|
|        3620|  4.2989e+01|  4.2989e+01|   -9.449548|  6.5047e-06|    0.090606|
|        3630|  4.2989e+01|  4.2989e+01|   -9.453992|  6.4634e-06|    0.090612|
|        3640|  4.2989e+01|  4.2989e+01|   -9.458617|  6.4206e-06|    0.090618|
|        3650|  4.2989e+01|  4.2989e+01|   -9.463382|  6.3771e-06|    0.090625|
|        3660|  4.2989e+01|  4.2989e+01|   -9.468134|  6.3322e-06|    0.090631|
|        3670|  4.2989e+01|  4.2989e+01|   -9.472907|  6.2879e-06|    0.090637|
|        3680|  4.2989e+01|  4.2989e+01|   -9.477810|  6.2458e-06|    0.090643|
|        3690|  4.2989e+01|  4.2989e+01|   -9.482940|  6.2051e-06|    0.090650|
|        3700|  4.2989e+01|  4.2989e+01|   -9.488325|  6.1653e-06|    0.090656|
|        3710|  4.2989e+01|  4.2989e+01|   -9.493819|  6.1256e-06|    0.090662|
|        3720|  4.2989e+01|  4.2989e+01|   -9.499283|  6.0858e-06|    0.090668|
|        3730|  4.2989e+01|  4.2989e+01|   -9.504700|  6.0459e-06|    0.090674|
|        3740|  4.2989e+01|  4.2989e+01|   -9.510112|  6.0057e-06|    0.090680|
|        3750|  4.2989e+01|  4.2989e+01|   -9.515569|  5.9650e-06|    0.090686|
|        3760|  4.2989e+01|  4.2989e+01|   -9.521056|  6.0435e-06|    0.090692|
|        3770|  4.2989e+01|  4.2989e+01|   -9.526503|  6.1367e-06|    0.090698|
|        3780|  4.2989e+01|  4.2989e+01|   -9.531880|  6.2822e-06|    0.090704|
|        3790|  4.2989e+01|  4.2989e+01|   -9.537215|  6.2616e-06|    0.090710|
|        3800|  4.2989e+01|  4.2989e+01|   -9.542519|  6.2353e-06|    0.090716|
+-----------------------------------------------------------------------+
|        File Writing Summary       |              Filename             |
+-----------------------------------------------------------------------+
|SU2 binary restart                 |restart_flow_G8.dat                |
|Paraview                           |flow_G8.vtu                        |
|Paraview surface                   |surface_flow_G8.vtu                |
+-----------------------------------------------------------------------+
+-----------------------------------------------------------------------------+
|  Inner_Iter|     Min CFL|     Max CFL|      rms[P]|  Cauchy[CD]|          CD|
+-----------------------------------------------------------------------------+
|        3810|  4.2989e+01|  4.2989e+01|   -9.547757|  6.2115e-06|    0.090722|
|        3820|  4.2989e+01|  4.2989e+01|   -9.552885|  6.1868e-06|    0.090728|
|        3830|  4.2989e+01|  4.2989e+01|   -9.557873|  6.1609e-06|    0.090734|
|        3840|  4.2989e+01|  4.2989e+01|   -9.562727|  6.1330e-06|    0.090740|
|        3850|  4.2989e+01|  4.2989e+01|   -9.567498|  6.1051e-06|    0.090745|
|        3860|  4.2989e+01|  4.2989e+01|   -9.572259|  6.0781e-06|    0.090751|
|        3870|  4.2989e+01|  4.2989e+01|   -9.577061|  6.0521e-06|    0.090757|
|        3880|  4.2989e+01|  4.2989e+01|   -9.581902|  6.0275e-06|    0.090763|
|        3890|  4.2989e+01|  4.2989e+01|   -9.586740|  6.0034e-06|    0.090768|
|        3900|  4.2989e+01|  4.2989e+01|   -9.591524|  5.9790e-06|    0.090774|
|        3910|  1.5404e+01|  1.5404e+01|   -9.596647|  5.8260e-06|    0.090777|
|        3920|  7.9481e+00|  7.9481e+00|   -9.599504|  5.6894e-06|    0.090779|
|        3930|  4.1010e+01|  4.1010e+01|   -9.600947|  5.5491e-06|    0.090782|
|        3940|  4.1010e+01|  4.1010e+01|   -9.602959|  5.5135e-06|    0.090787|
|        3950|  4.1010e+01|  4.1010e+01|   -9.607177|  5.4788e-06|    0.090793|
|        3960|  4.1010e+01|  4.1010e+01|   -9.611593|  5.4435e-06|    0.090798|
|        3970|  4.1010e+01|  4.1010e+01|   -9.615827|  5.4090e-06|    0.090803|
|        3980|  4.1010e+01|  4.1010e+01|   -9.620127|  5.3754e-06|    0.090809|
|        3990|  4.1010e+01|  4.1010e+01|   -9.624603|  5.3429e-06|    0.090814|
|        4000|  4.1010e+01|  4.1010e+01|   -9.629153|  5.3107e-06|    0.090819|
+-----------------------------------------------------------------------+
|        File Writing Summary       |              Filename             |
+-----------------------------------------------------------------------+
|SU2 binary restart                 |restart_flow_G8.dat                |
|Paraview                           |flow_G8.vtu                        |
|Paraview surface                   |surface_flow_G8.vtu                |
+-----------------------------------------------------------------------+
+-----------------------------------------------------------------------------+
|  Inner_Iter|     Min CFL|     Max CFL|      rms[P]|  Cauchy[CD]|          CD|
+-----------------------------------------------------------------------------+
|        4010|  4.1010e+01|  4.1010e+01|   -9.633497|  5.2784e-06|    0.090824|
|        4020|  4.1010e+01|  4.1010e+01|   -9.637741|  5.2454e-06|    0.090829|
|        4030|  4.1010e+01|  4.1010e+01|   -9.641941|  5.2116e-06|    0.090835|
|        4040|  4.1010e+01|  4.1010e+01|   -9.646152|  5.1773e-06|    0.090840|
|        4050|  4.1010e+01|  4.1010e+01|   -9.650404|  5.1432e-06|    0.090845|
|        4060|  4.1010e+01|  4.1010e+01|   -9.654612|  5.1092e-06|    0.090850|
|        4070|  4.1010e+01|  4.1010e+01|   -9.658708|  5.0752e-06|    0.090855|
|        4080|  4.1010e+01|  4.1010e+01|   -9.662726|  5.0413e-06|    0.090860|
|        4090|  4.1010e+01|  4.1010e+01|   -9.666723|  5.0076e-06|    0.090865|
|        4100|  4.1010e+01|  4.1010e+01|   -9.670785|  4.9741e-06|    0.090870|
|        4110|  4.1010e+01|  4.1010e+01|   -9.674896|  4.9408e-06|    0.090875|
|        4120|  4.1010e+01|  4.1010e+01|   -9.678954|  4.9077e-06|    0.090880|
|        4130|  4.1010e+01|  4.1010e+01|   -9.682909|  4.8745e-06|    0.090885|
|        4140|  4.1010e+01|  4.1010e+01|   -9.686763|  4.8409e-06|    0.090889|
|        4150|  4.1010e+01|  4.1010e+01|   -9.690555|  4.8070e-06|    0.090894|
|        4160|  4.1010e+01|  4.1010e+01|   -9.694339|  4.9015e-06|    0.090899|
|        4170|  4.1010e+01|  4.1010e+01|   -9.698122|  4.9799e-06|    0.090904|
|        4180|  4.1010e+01|  4.1010e+01|   -9.701869|  5.0623e-06|    0.090909|
|        4190|  4.1010e+01|  4.1010e+01|   -9.705579|  5.0398e-06|    0.090913|
|        4200|  4.1010e+01|  4.1010e+01|   -9.709293|  5.0161e-06|    0.090918|
+-----------------------------------------------------------------------+
|        File Writing Summary       |              Filename             |
+-----------------------------------------------------------------------+
|SU2 binary restart                 |restart_flow_G8.dat                |
|Paraview                           |flow_G8.vtu                        |
|Paraview surface                   |surface_flow_G8.vtu                |
+-----------------------------------------------------------------------+
+-----------------------------------------------------------------------------+
|  Inner_Iter|     Min CFL|     Max CFL|      rms[P]|  Cauchy[CD]|          CD|
+-----------------------------------------------------------------------------+
|        4210|  4.1010e+01|  4.1010e+01|   -9.713037|  4.9927e-06|    0.090923|
|        4220|  4.1010e+01|  4.1010e+01|   -9.716801|  4.9684e-06|    0.090928|
|        4230|  4.1010e+01|  4.1010e+01|   -9.720568|  4.9439e-06|    0.090932|
|        4240|  4.1010e+01|  4.1010e+01|   -9.724313|  4.9188e-06|    0.090937|
|        4250|  4.1010e+01|  4.1010e+01|   -9.728024|  4.8937e-06|    0.090941|
|        4260|  4.1010e+01|  4.1010e+01|   -9.731708|  4.8686e-06|    0.090946|
|        4270|  4.1010e+01|  4.1010e+01|   -9.735402|  4.8434e-06|    0.090951|
|        4280|  4.1010e+01|  4.1010e+01|   -9.739149|  4.8184e-06|    0.090955|
|        4290|  4.1010e+01|  4.1010e+01|   -9.742974|  4.7941e-06|    0.090960|
|        4300|  4.1010e+01|  4.1010e+01|   -9.746863|  4.7702e-06|    0.090964|
|        4310|  4.1010e+01|  4.1010e+01|   -9.750775|  4.7467e-06|    0.090968|
|        4320|  4.1010e+01|  4.1010e+01|   -9.754667|  4.7232e-06|    0.090973|
|        4330|  4.1010e+01|  4.1010e+01|   -9.758513|  4.6995e-06|    0.090977|
|        4340|  4.1010e+01|  4.1010e+01|   -9.762314|  4.6754e-06|    0.090982|
|        4350|  4.1010e+01|  4.1010e+01|   -9.766083|  4.6512e-06|    0.090986|
|        4360|  4.1010e+01|  4.1010e+01|   -9.769838|  4.6271e-06|    0.090990|
|        4370|  4.1010e+01|  4.1010e+01|   -9.773589|  4.6029e-06|    0.090995|
|        4380|  4.1010e+01|  4.1010e+01|   -9.777341|  4.5788e-06|    0.090999|
|        4390|  4.1010e+01|  4.1010e+01|   -9.781097|  4.5549e-06|    0.091003|
|        4400|  4.1010e+01|  4.1010e+01|   -9.784853|  4.5314e-06|    0.091008|
+-----------------------------------------------------------------------+
|        File Writing Summary       |              Filename             |
+-----------------------------------------------------------------------+
|SU2 binary restart                 |restart_flow_G8.dat                |
|Paraview                           |flow_G8.vtu                        |
|Paraview surface                   |surface_flow_G8.vtu                |
+-----------------------------------------------------------------------+
+-----------------------------------------------------------------------------+
|  Inner_Iter|     Min CFL|     Max CFL|      rms[P]|  Cauchy[CD]|          CD|
+-----------------------------------------------------------------------------+
|        4410|  4.1010e+01|  4.1010e+01|   -9.788596|  4.5084e-06|    0.091012|
|        4420|  4.1010e+01|  4.1010e+01|   -9.792305|  4.4855e-06|    0.091016|
|        4430|  4.1010e+01|  4.1010e+01|   -9.795964|  4.4624e-06|    0.091020|
|        4440|  4.1010e+01|  4.1010e+01|   -9.799566|  4.4390e-06|    0.091024|
|        4450|  4.1010e+01|  4.1010e+01|   -9.803115|  4.4156e-06|    0.091029|
|        4460|  4.1010e+01|  4.1010e+01|   -9.806620|  4.3923e-06|    0.091033|
|        4470|  4.1010e+01|  4.1010e+01|   -9.810097|  4.3693e-06|    0.091037|
|        4480|  4.1010e+01|  4.1010e+01|   -9.813557|  4.3465e-06|    0.091041|
|        4490|  4.1010e+01|  4.1010e+01|   -9.817009|  4.3238e-06|    0.091045|
|        4500|  4.1010e+01|  4.1010e+01|   -9.820451|  4.3011e-06|    0.091049|
|        4510|  4.1010e+01|  4.1010e+01|   -9.823879|  4.2784e-06|    0.091053|
|        4520|  4.1010e+01|  4.1010e+01|   -9.827286|  4.2560e-06|    0.091057|
|        4530|  4.1010e+01|  4.1010e+01|   -9.830668|  4.2336e-06|    0.091061|
|        4540|  4.1010e+01|  4.1010e+01|   -9.834019|  4.2113e-06|    0.091065|
|        4550|  4.1010e+01|  4.1010e+01|   -9.837339|  4.1888e-06|    0.091069|
|        4560|  4.1010e+01|  4.1010e+01|   -9.840631|  4.1663e-06|    0.091073|
|        4570|  4.1010e+01|  4.1010e+01|   -9.843898|  4.1439e-06|    0.091077|
|        4580|  4.1010e+01|  4.1010e+01|   -9.847149|  4.1217e-06|    0.091080|
|        4590|  4.1010e+01|  4.1010e+01|   -9.850389|  4.0998e-06|    0.091084|
|        4600|  4.1010e+01|  4.1010e+01|   -9.853623|  4.0779e-06|    0.091088|
+-----------------------------------------------------------------------+
|        File Writing Summary       |              Filename             |
+-----------------------------------------------------------------------+
|SU2 binary restart                 |restart_flow_G8.dat                |
|Paraview                           |flow_G8.vtu                        |
|Paraview surface                   |surface_flow_G8.vtu                |
+-----------------------------------------------------------------------+
+-----------------------------------------------------------------------------+
|  Inner_Iter|     Min CFL|     Max CFL|      rms[P]|  Cauchy[CD]|          CD|
+-----------------------------------------------------------------------------+
|        4610|  4.1010e+01|  4.1010e+01|   -9.856850|  4.0561e-06|    0.091092|
|        4620|  4.1010e+01|  4.1010e+01|   -9.860065|  4.0342e-06|    0.091096|
|        4630|  4.1010e+01|  4.1010e+01|   -9.863262|  4.0124e-06|    0.091099|
|        4640|  4.1010e+01|  4.1010e+01|   -9.866436|  3.9907e-06|    0.091103|
|        4650|  4.1010e+01|  4.1010e+01|   -9.869585|  3.9691e-06|    0.091107|
|        4660|  4.1010e+01|  4.1010e+01|   -9.872709|  3.9476e-06|    0.091111|
|        4670|  4.1010e+01|  4.1010e+01|   -9.875811|  3.9261e-06|    0.091114|
|        4680|  4.1010e+01|  4.1010e+01|   -9.878895|  3.9047e-06|    0.091118|
|        4690|  4.1010e+01|  4.1010e+01|   -9.881962|  3.8834e-06|    0.091121|
|        4700|  4.1010e+01|  4.1010e+01|   -9.885015|  3.8622e-06|    0.091125|
|        4710|  4.1010e+01|  4.1010e+01|   -9.888054|  3.8411e-06|    0.091129|
|        4720|  4.1010e+01|  4.1010e+01|   -9.891080|  3.8201e-06|    0.091132|
|        4730|  4.1010e+01|  4.1010e+01|   -9.894090|  3.7993e-06|    0.091136|
|        4740|  4.1010e+01|  4.1010e+01|   -9.897086|  3.7785e-06|    0.091139|
|        4750|  4.1010e+01|  4.1010e+01|   -9.900065|  3.7578e-06|    0.091143|
|        4760|  4.1010e+01|  4.1010e+01|   -9.903029|  3.7372e-06|    0.091146|
|        4770|  4.1010e+01|  4.1010e+01|   -9.905976|  3.7167e-06|    0.091150|
|        4780|  4.1010e+01|  4.1010e+01|   -9.908909|  3.6963e-06|    0.091153|
|        4790|  4.1010e+01|  4.1010e+01|   -9.911831|  3.6760e-06|    0.091157|
|        4800|  4.1010e+01|  4.1010e+01|   -9.914744|  3.6558e-06|    0.091160|
+-----------------------------------------------------------------------+
|        File Writing Summary       |              Filename             |
+-----------------------------------------------------------------------+
|SU2 binary restart                 |restart_flow_G8.dat                |
|Paraview                           |flow_G8.vtu                        |
|Paraview surface                   |surface_flow_G8.vtu                |
+-----------------------------------------------------------------------+
+-----------------------------------------------------------------------------+
|  Inner_Iter|     Min CFL|     Max CFL|      rms[P]|  Cauchy[CD]|          CD|
+-----------------------------------------------------------------------------+
|        4810|  4.1010e+01|  4.1010e+01|   -9.917652|  3.6357e-06|    0.091164|
|        4820|  4.1010e+01|  4.1010e+01|   -9.920557|  3.6157e-06|    0.091167|
|        4830|  4.1010e+01|  4.1010e+01|   -9.923459|  3.5959e-06|    0.091170|
|        4840|  4.1010e+01|  4.1010e+01|   -9.926356|  3.5762e-06|    0.091174|
|        4850|  4.1010e+01|  4.1010e+01|   -9.929249|  3.5566e-06|    0.091177|
|        4860|  4.1010e+01|  4.1010e+01|   -9.932135|  3.5371e-06|    0.091180|
|        4870|  4.1010e+01|  4.1010e+01|   -9.935012|  3.5177e-06|    0.091184|
|        4880|  4.1010e+01|  4.1010e+01|   -9.937882|  3.4983e-06|    0.091187|
|        4890|  4.1010e+01|  4.1010e+01|   -9.940746|  3.4791e-06|    0.091190|
|        4900|  4.1010e+01|  4.1010e+01|   -9.943606|  3.4599e-06|    0.091193|
|        4910|  4.1010e+01|  4.1010e+01|   -9.946462|  3.4409e-06|    0.091197|
|        4920|  4.1010e+01|  4.1010e+01|   -9.949316|  3.4220e-06|    0.091200|
|        4930|  4.1010e+01|  4.1010e+01|   -9.952165|  3.4032e-06|    0.091203|
|        4940|  4.1010e+01|  4.1010e+01|   -9.955009|  3.3845e-06|    0.091206|
|        4950|  4.1010e+01|  4.1010e+01|   -9.957843|  3.3659e-06|    0.091209|
|        4960|  4.1010e+01|  4.1010e+01|   -9.960666|  3.3474e-06|    0.091212|
|        4970|  4.1010e+01|  4.1010e+01|   -9.963477|  3.3290e-06|    0.091215|
|        4980|  4.1010e+01|  4.1010e+01|   -9.966275|  3.3107e-06|    0.091219|
|        4990|  4.1010e+01|  4.1010e+01|   -9.969061|  3.2925e-06|    0.091222|
|        5000|  4.1010e+01|  4.1010e+01|   -9.971835|  3.2744e-06|    0.091225|
+-----------------------------------------------------------------------+
|        File Writing Summary       |              Filename             |
+-----------------------------------------------------------------------+
|SU2 binary restart                 |restart_flow_G8.dat                |
|Paraview                           |flow_G8.vtu                        |
|Paraview surface                   |surface_flow_G8.vtu                |
+-----------------------------------------------------------------------+
+-----------------------------------------------------------------------------+
|  Inner_Iter|     Min CFL|     Max CFL|      rms[P]|  Cauchy[CD]|          CD|
+-----------------------------------------------------------------------------+
|        5010|  4.1010e+01|  4.1010e+01|   -9.974598|  3.2564e-06|    0.091228|
|        5020|  4.1010e+01|  4.1010e+01|   -9.977349|  3.2385e-06|    0.091231|
|        5030|  4.1010e+01|  4.1010e+01|   -9.980089|  3.2207e-06|    0.091234|
|        5040|  4.1010e+01|  4.1010e+01|   -9.982815|  3.2031e-06|    0.091237|
|        5050|  4.1010e+01|  4.1010e+01|   -9.985528|  3.1855e-06|    0.091240|
|        5060|  4.1010e+01|  4.1010e+01|   -9.988228|  3.1680e-06|    0.091243|
|        5070|  4.1010e+01|  4.1010e+01|   -9.990914|  3.1506e-06|    0.091246|
|        5080|  4.1010e+01|  4.1010e+01|   -9.993588|  3.1333e-06|    0.091249|
|        5090|  4.1010e+01|  4.1010e+01|   -9.996251|  3.1161e-06|    0.091252|
|        5100|  4.1010e+01|  4.1010e+01|   -9.998902|  3.0990e-06|    0.091254|
|        5110|  4.1010e+01|  4.1010e+01|  -10.001543|  3.0820e-06|    0.091257|
|        5120|  4.1010e+01|  4.1010e+01|  -10.004173|  3.0651e-06|    0.091260|
|        5130|  4.1010e+01|  4.1010e+01|  -10.006793|  3.0483e-06|    0.091263|
|        5140|  4.1010e+01|  4.1010e+01|  -10.009401|  3.0315e-06|    0.091266|
|        5150|  4.1010e+01|  4.1010e+01|  -10.012000|  3.0149e-06|    0.091269|
|        5160|  4.1010e+01|  4.1010e+01|  -10.014588|  2.9983e-06|    0.091271|
|        5170|  4.1010e+01|  4.1010e+01|  -10.017169|  2.9818e-06|    0.091274|
|        5180|  4.1010e+01|  4.1010e+01|  -10.019741|  2.9654e-06|    0.091277|
|        5190|  4.1010e+01|  4.1010e+01|  -10.022306|  2.9491e-06|    0.091280|
|        5200|  4.1010e+01|  4.1010e+01|  -10.024865|  2.9329e-06|    0.091283|
+-----------------------------------------------------------------------+
|        File Writing Summary       |              Filename             |
+-----------------------------------------------------------------------+
|SU2 binary restart                 |restart_flow_G8.dat                |
|Paraview                           |flow_G8.vtu                        |
|Paraview surface                   |surface_flow_G8.vtu                |
+-----------------------------------------------------------------------+
+-----------------------------------------------------------------------------+
|  Inner_Iter|     Min CFL|     Max CFL|      rms[P]|  Cauchy[CD]|          CD|
+-----------------------------------------------------------------------------+
|        5210|  4.1010e+01|  4.1010e+01|  -10.027417|  2.9168e-06|    0.091285|
|        5220|  4.1010e+01|  4.1010e+01|  -10.029962|  2.9008e-06|    0.091288|
|        5230|  4.1010e+01|  4.1010e+01|  -10.032499|  2.8849e-06|    0.091291|
|        5240|  4.1010e+01|  4.1010e+01|  -10.035030|  2.8690e-06|    0.091293|
|        5250|  4.1010e+01|  4.1010e+01|  -10.037554|  2.8532e-06|    0.091296|
|        5260|  4.1010e+01|  4.1010e+01|  -10.040070|  2.8376e-06|    0.091299|
|        5270|  4.1010e+01|  4.1010e+01|  -10.042579|  2.8220e-06|    0.091301|
|        5280|  4.1010e+01|  4.1010e+01|  -10.045081|  2.8065e-06|    0.091304|
|        5290|  4.1010e+01|  4.1010e+01|  -10.047576|  2.7910e-06|    0.091307|
|        5300|  4.1010e+01|  4.1010e+01|  -10.050065|  2.7757e-06|    0.091309|
|        5310|  4.1010e+01|  4.1010e+01|  -10.052548|  2.7605e-06|    0.091312|
|        5320|  4.1010e+01|  4.1010e+01|  -10.055026|  2.7453e-06|    0.091314|
|        5330|  4.1010e+01|  4.1010e+01|  -10.057498|  2.7302e-06|    0.091317|
|        5340|  4.1010e+01|  4.1010e+01|  -10.059964|  2.7152e-06|    0.091319|
|        5350|  4.1010e+01|  4.1010e+01|  -10.062424|  2.7004e-06|    0.091322|
|        5360|  4.1010e+01|  4.1010e+01|  -10.064878|  2.6856e-06|    0.091324|
|        5370|  4.1010e+01|  4.1010e+01|  -10.067325|  2.6709e-06|    0.091327|
|        5380|  4.1010e+01|  4.1010e+01|  -10.069765|  2.6563e-06|    0.091329|
|        5390|  4.1010e+01|  4.1010e+01|  -10.072199|  2.6417e-06|    0.091332|
|        5400|  4.1010e+01|  4.1010e+01|  -10.074627|  2.6273e-06|    0.091334|
+-----------------------------------------------------------------------+
|        File Writing Summary       |              Filename             |
+-----------------------------------------------------------------------+
|SU2 binary restart                 |restart_flow_G8.dat                |
|Paraview                           |flow_G8.vtu                        |
|Paraview surface                   |surface_flow_G8.vtu                |
+-----------------------------------------------------------------------+
+-----------------------------------------------------------------------------+
|  Inner_Iter|     Min CFL|     Max CFL|      rms[P]|  Cauchy[CD]|          CD|
+-----------------------------------------------------------------------------+
|        5410|  4.1010e+01|  4.1010e+01|  -10.077050|  2.6130e-06|    0.091337|
|        5420|  4.1010e+01|  4.1010e+01|  -10.079467|  2.5987e-06|    0.091339|
|        5430|  4.1010e+01|  4.1010e+01|  -10.081880|  2.5846e-06|    0.091342|
|        5440|  4.1010e+01|  4.1010e+01|  -10.084290|  2.5705e-06|    0.091344|
|        5450|  4.1010e+01|  4.1010e+01|  -10.086697|  2.5566e-06|    0.091346|
|        5460|  4.1010e+01|  4.1010e+01|  -10.089100|  2.5427e-06|    0.091349|
|        5470|  4.1010e+01|  4.1010e+01|  -10.091499|  2.5289e-06|    0.091351|
|        5480|  4.1010e+01|  4.1010e+01|  -10.093894|  2.5152e-06|    0.091354|
|        5490|  4.1010e+01|  4.1010e+01|  -10.096285|  2.5016e-06|    0.091356|
|        5500|  4.1010e+01|  4.1010e+01|  -10.098672|  2.4880e-06|    0.091358|
|        5510|  4.1010e+01|  4.1010e+01|  -10.101054|  2.4746e-06|    0.091361|
|        5520|  4.1010e+01|  4.1010e+01|  -10.103432|  2.4612e-06|    0.091363|
|        5530|  4.1010e+01|  4.1010e+01|  -10.105804|  2.4479e-06|    0.091365|
|        5540|  4.1010e+01|  4.1010e+01|  -10.108172|  2.4347e-06|    0.091367|
|        5550|  4.1010e+01|  4.1010e+01|  -10.110535|  2.4216e-06|    0.091370|
|        5560|  4.1010e+01|  4.1010e+01|  -10.112893|  2.4085e-06|    0.091372|
|        5570|  4.1010e+01|  4.1010e+01|  -10.115247|  2.3956e-06|    0.091374|
|        5580|  4.1010e+01|  4.1010e+01|  -10.117597|  2.3827e-06|    0.091376|
|        5590|  4.1010e+01|  4.1010e+01|  -10.119942|  2.3698e-06|    0.091379|
|        5600|  4.1010e+01|  4.1010e+01|  -10.122283|  2.3571e-06|    0.091381|
+-----------------------------------------------------------------------+
|        File Writing Summary       |              Filename             |
+-----------------------------------------------------------------------+
|SU2 binary restart                 |restart_flow_G8.dat                |
|Paraview                           |flow_G8.vtu                        |
|Paraview surface                   |surface_flow_G8.vtu                |
+-----------------------------------------------------------------------+
+-----------------------------------------------------------------------------+
|  Inner_Iter|     Min CFL|     Max CFL|      rms[P]|  Cauchy[CD]|          CD|
+-----------------------------------------------------------------------------+
|        5610|  4.1010e+01|  4.1010e+01|  -10.124620|  2.3445e-06|    0.091383|
|        5620|  4.1010e+01|  4.1010e+01|  -10.126953|  2.3319e-06|    0.091385|
|        5630|  4.1010e+01|  4.1010e+01|  -10.129282|  2.3194e-06|    0.091387|
|        5640|  4.1010e+01|  4.1010e+01|  -10.131607|  2.3070e-06|    0.091390|
|        5650|  4.1010e+01|  4.1010e+01|  -10.133928|  2.2946e-06|    0.091392|
|        5660|  4.1010e+01|  4.1010e+01|  -10.136245|  2.2824e-06|    0.091394|
|        5670|  4.1010e+01|  4.1010e+01|  -10.138557|  2.2702e-06|    0.091396|
|        5680|  4.1010e+01|  4.1010e+01|  -10.140864|  2.2581e-06|    0.091398|
|        5690|  4.1010e+01|  4.1010e+01|  -10.143167|  2.2461e-06|    0.091400|
|        5700|  4.1010e+01|  4.1010e+01|  -10.145466|  2.2341e-06|    0.091402|
|        5710|  4.1010e+01|  4.1010e+01|  -10.147761|  2.2222e-06|    0.091404|
|        5720|  4.1010e+01|  4.1010e+01|  -10.150053|  2.2104e-06|    0.091406|
|        5730|  4.1010e+01|  4.1010e+01|  -10.152343|  2.1987e-06|    0.091409|
|        5740|  4.1010e+01|  4.1010e+01|  -10.154630|  2.1871e-06|    0.091411|
|        5750|  4.1010e+01|  4.1010e+01|  -10.156915|  2.1755e-06|    0.091413|
|        5760|  4.1010e+01|  4.1010e+01|  -10.159197|  2.1640e-06|    0.091415|
|        5770|  4.1010e+01|  4.1010e+01|  -10.161476|  2.1525e-06|    0.091417|
|        5780|  4.1010e+01|  4.1010e+01|  -10.163752|  2.1412e-06|    0.091419|
|        5790|  4.1010e+01|  4.1010e+01|  -10.166025|  2.1299e-06|    0.091421|
|        5800|  4.1010e+01|  4.1010e+01|  -10.168297|  2.1187e-06|    0.091423|
+-----------------------------------------------------------------------+
|        File Writing Summary       |              Filename             |
+-----------------------------------------------------------------------+
|SU2 binary restart                 |restart_flow_G8.dat                |
|Paraview                           |flow_G8.vtu                        |
|Paraview surface                   |surface_flow_G8.vtu                |
+-----------------------------------------------------------------------+
+-----------------------------------------------------------------------------+
|  Inner_Iter|     Min CFL|     Max CFL|      rms[P]|  Cauchy[CD]|          CD|
+-----------------------------------------------------------------------------+
|        5810|  4.1010e+01|  4.1010e+01|  -10.170567|  2.1075e-06|    0.091425|
|        5820|  4.1010e+01|  4.1010e+01|  -10.172836|  2.0964e-06|    0.091427|
|        5830|  4.1010e+01|  4.1010e+01|  -10.175104|  2.0854e-06|    0.091429|
|        5840|  4.1010e+01|  4.1010e+01|  -10.177371|  2.0744e-06|    0.091431|
|        5850|  4.1010e+01|  4.1010e+01|  -10.179637|  2.0635e-06|    0.091432|
|        5860|  4.1010e+01|  4.1010e+01|  -10.181901|  2.0527e-06|    0.091434|
|        5870|  4.1010e+01|  4.1010e+01|  -10.184163|  2.0420e-06|    0.091436|
|        5880|  4.1010e+01|  4.1010e+01|  -10.186422|  2.0312e-06|    0.091438|
|        5890|  4.1010e+01|  4.1010e+01|  -10.188679|  2.0206e-06|    0.091440|
|        5900|  4.1010e+01|  4.1010e+01|  -10.190934|  2.0100e-06|    0.091442|
|        5910|  4.1010e+01|  4.1010e+01|  -10.193188|  1.9995e-06|    0.091444|
|        5920|  4.1010e+01|  4.1010e+01|  -10.195441|  1.9890e-06|    0.091446|
|        5930|  4.1010e+01|  4.1010e+01|  -10.197693|  1.9786e-06|    0.091448|
|        5940|  4.1010e+01|  4.1010e+01|  -10.199945|  1.9682e-06|    0.091449|
|        5950|  4.1010e+01|  4.1010e+01|  -10.202195|  1.9579e-06|    0.091451|
|        5960|  4.1010e+01|  4.1010e+01|  -10.204444|  1.9477e-06|    0.091453|
|        5970|  4.1010e+01|  4.1010e+01|  -10.206691|  1.9375e-06|    0.091455|
|        5980|  4.1010e+01|  4.1010e+01|  -10.208937|  1.9274e-06|    0.091457|
|        5990|  4.1010e+01|  4.1010e+01|  -10.211180|  1.9173e-06|    0.091459|
|        6000|  4.1010e+01|  4.1010e+01|  -10.213422|  1.9073e-06|    0.091460|
+-----------------------------------------------------------------------+
|        File Writing Summary       |              Filename             |
+-----------------------------------------------------------------------+
|SU2 binary restart                 |restart_flow_G8.dat                |
|Paraview                           |flow_G8.vtu                        |
|Paraview surface                   |surface_flow_G8.vtu                |
+-----------------------------------------------------------------------+
+-----------------------------------------------------------------------------+
|  Inner_Iter|     Min CFL|     Max CFL|      rms[P]|  Cauchy[CD]|          CD|
+-----------------------------------------------------------------------------+
|        6010|  4.1010e+01|  4.1010e+01|  -10.215662|  1.8973e-06|    0.091462|
|        6020|  4.1010e+01|  4.1010e+01|  -10.217901|  1.8874e-06|    0.091464|
|        6030|  4.1010e+01|  4.1010e+01|  -10.220139|  1.8775e-06|    0.091466|
|        6040|  4.1010e+01|  4.1010e+01|  -10.222375|  1.8677e-06|    0.091467|
|        6050|  4.1010e+01|  4.1010e+01|  -10.224612|  1.8580e-06|    0.091469|
|        6060|  4.1010e+01|  4.1010e+01|  -10.226847|  1.8483e-06|    0.091471|
|        6070|  4.1010e+01|  4.1010e+01|  -10.229080|  1.8387e-06|    0.091473|
|        6080|  4.1010e+01|  4.1010e+01|  -10.231313|  1.8291e-06|    0.091474|
|        6090|  4.1010e+01|  4.1010e+01|  -10.233543|  1.8196e-06|    0.091476|
|        6100|  4.1010e+01|  4.1010e+01|  -10.235772|  1.8101e-06|    0.091478|
|        6110|  4.1010e+01|  4.1010e+01|  -10.238000|  1.8007e-06|    0.091479|
|        6120|  4.1010e+01|  4.1010e+01|  -10.240226|  1.7913e-06|    0.091481|
|        6130|  4.1010e+01|  4.1010e+01|  -10.242451|  1.7820e-06|    0.091483|
|        6140|  4.1010e+01|  4.1010e+01|  -10.244675|  1.7727e-06|    0.091484|
|        6150|  4.1010e+01|  4.1010e+01|  -10.246898|  1.7635e-06|    0.091486|
|        6160|  4.1010e+01|  4.1010e+01|  -10.249120|  1.7544e-06|    0.091488|
|        6170|  4.1010e+01|  4.1010e+01|  -10.251341|  1.7453e-06|    0.091489|
|        6180|  4.1010e+01|  4.1010e+01|  -10.253561|  1.7362e-06|    0.091491|
|        6190|  4.1010e+01|  4.1010e+01|  -10.255779|  1.7272e-06|    0.091493|
|        6200|  4.1010e+01|  4.1010e+01|  -10.257996|  1.7183e-06|    0.091494|
+-----------------------------------------------------------------------+
|        File Writing Summary       |              Filename             |
+-----------------------------------------------------------------------+
|SU2 binary restart                 |restart_flow_G8.dat                |
|Paraview                           |flow_G8.vtu                        |
|Paraview surface                   |surface_flow_G8.vtu                |
+-----------------------------------------------------------------------+
+-----------------------------------------------------------------------------+
|  Inner_Iter|     Min CFL|     Max CFL|      rms[P]|  Cauchy[CD]|          CD|
+-----------------------------------------------------------------------------+
|        6210|  4.1010e+01|  4.1010e+01|  -10.260210|  1.7094e-06|    0.091496|
|        6220|  4.1010e+01|  4.1010e+01|  -10.262423|  1.7005e-06|    0.091497|
|        6230|  4.1010e+01|  4.1010e+01|  -10.264635|  1.6917e-06|    0.091499|
|        6240|  4.1010e+01|  4.1010e+01|  -10.266845|  1.6830e-06|    0.091501|
|        6250|  4.1010e+01|  4.1010e+01|  -10.269055|  1.6743e-06|    0.091502|
|        6260|  4.1010e+01|  4.1010e+01|  -10.271264|  1.6656e-06|    0.091504|
|        6270|  4.1010e+01|  4.1010e+01|  -10.273472|  1.6570e-06|    0.091505|
|        6280|  4.1010e+01|  4.1010e+01|  -10.275678|  1.6485e-06|    0.091507|
|        6290|  4.1010e+01|  4.1010e+01|  -10.277882|  1.6400e-06|    0.091508|
|        6300|  4.1010e+01|  4.1010e+01|  -10.280085|  1.6315e-06|    0.091510|
|        6310|  4.1010e+01|  4.1010e+01|  -10.282287|  1.6231e-06|    0.091511|
|        6320|  4.1010e+01|  4.1010e+01|  -10.284488|  1.6148e-06|    0.091513|
|        6330|  4.1010e+01|  4.1010e+01|  -10.286687|  1.6064e-06|    0.091514|
|        6340|  4.1010e+01|  4.1010e+01|  -10.288886|  1.5982e-06|    0.091516|
|        6350|  4.1010e+01|  4.1010e+01|  -10.291083|  1.5900e-06|    0.091517|
|        6360|  4.1010e+01|  4.1010e+01|  -10.293279|  1.5818e-06|    0.091519|
|        6370|  4.1010e+01|  4.1010e+01|  -10.295474|  1.5737e-06|    0.091520|
|        6380|  4.1010e+01|  4.1010e+01|  -10.297668|  1.5656e-06|    0.091522|
|        6390|  4.1010e+01|  4.1010e+01|  -10.299861|  1.5576e-06|    0.091523|
|        6400|  4.1010e+01|  4.1010e+01|  -10.302053|  1.5496e-06|    0.091525|
+-----------------------------------------------------------------------+
|        File Writing Summary       |              Filename             |
+-----------------------------------------------------------------------+
|SU2 binary restart                 |restart_flow_G8.dat                |
|Paraview                           |flow_G8.vtu                        |
|Paraview surface                   |surface_flow_G8.vtu                |
+-----------------------------------------------------------------------+
+-----------------------------------------------------------------------------+
|  Inner_Iter|     Min CFL|     Max CFL|      rms[P]|  Cauchy[CD]|          CD|
+-----------------------------------------------------------------------------+
|        6410|  4.1010e+01|  4.1010e+01|  -10.304243|  1.5416e-06|    0.091526|
|        6420|  4.1010e+01|  4.1010e+01|  -10.306433|  1.5337e-06|    0.091528|
|        6430|  4.1010e+01|  4.1010e+01|  -10.308622|  1.5259e-06|    0.091529|
|        6440|  4.1010e+01|  4.1010e+01|  -10.310810|  1.5181e-06|    0.091531|
|        6450|  4.1010e+01|  4.1010e+01|  -10.312998|  1.5103e-06|    0.091532|
|        6460|  4.1010e+01|  4.1010e+01|  -10.315186|  1.5026e-06|    0.091533|
|        6470|  4.1010e+01|  4.1010e+01|  -10.317372|  1.4949e-06|    0.091535|
|        6480|  4.1010e+01|  4.1010e+01|  -10.319558|  1.4873e-06|    0.091536|
|        6490|  4.1010e+01|  4.1010e+01|  -10.321743|  1.4797e-06|    0.091538|
|        6500|  4.1010e+01|  4.1010e+01|  -10.323927|  1.4721e-06|    0.091539|
|        6510|  4.1010e+01|  4.1010e+01|  -10.326111|  1.4646e-06|    0.091540|
|        6520|  4.1010e+01|  4.1010e+01|  -10.328294|  1.4571e-06|    0.091542|
|        6530|  4.1010e+01|  4.1010e+01|  -10.330477|  1.4497e-06|    0.091543|
|        6540|  4.1010e+01|  4.1010e+01|  -10.332660|  1.4423e-06|    0.091544|
|        6550|  4.1010e+01|  4.1010e+01|  -10.334842|  1.4349e-06|    0.091546|
|        6560|  4.1010e+01|  4.1010e+01|  -10.337024|  1.4276e-06|    0.091547|
|        6570|  4.1010e+01|  4.1010e+01|  -10.339206|  1.4204e-06|    0.091548|
|        6580|  4.1010e+01|  4.1010e+01|  -10.341387|  1.4131e-06|    0.091550|
|        6590|  4.1010e+01|  4.1010e+01|  -10.343568|  1.4059e-06|    0.091551|
|        6600|  4.1010e+01|  4.1010e+01|  -10.345748|  1.3988e-06|    0.091552|
+-----------------------------------------------------------------------+
|        File Writing Summary       |              Filename             |
+-----------------------------------------------------------------------+
|SU2 binary restart                 |restart_flow_G8.dat                |
|Paraview                           |flow_G8.vtu                        |
|Paraview surface                   |surface_flow_G8.vtu                |
+-----------------------------------------------------------------------+
+-----------------------------------------------------------------------------+
|  Inner_Iter|     Min CFL|     Max CFL|      rms[P]|  Cauchy[CD]|          CD|
+-----------------------------------------------------------------------------+
|        6610|  4.1010e+01|  4.1010e+01|  -10.347927|  1.3917e-06|    0.091554|
|        6620|  4.1010e+01|  4.1010e+01|  -10.350106|  1.3846e-06|    0.091555|
|        6630|  4.1010e+01|  4.1010e+01|  -10.352285|  1.3775e-06|    0.091556|
|        6640|  4.1010e+01|  4.1010e+01|  -10.354463|  1.3705e-06|    0.091558|
|        6650|  4.1010e+01|  4.1010e+01|  -10.356642|  1.3636e-06|    0.091559|
|        6660|  4.1010e+01|  4.1010e+01|  -10.358821|  1.3566e-06|    0.091560|
|        6670|  4.1010e+01|  4.1010e+01|  -10.361000|  1.3497e-06|    0.091561|
|        6680|  4.1010e+01|  4.1010e+01|  -10.363179|  1.3429e-06|    0.091563|
|        6690|  4.1010e+01|  4.1010e+01|  -10.365358|  1.3361e-06|    0.091564|
|        6700|  4.1010e+01|  4.1010e+01|  -10.367536|  1.3293e-06|    0.091565|
|        6710|  4.1010e+01|  4.1010e+01|  -10.369715|  1.3225e-06|    0.091566|
|        6720|  4.1010e+01|  4.1010e+01|  -10.371893|  1.3158e-06|    0.091568|
|        6730|  4.1010e+01|  4.1010e+01|  -10.374070|  1.3091e-06|    0.091569|
|        6740|  4.1010e+01|  4.1010e+01|  -10.376247|  1.3025e-06|    0.091570|
|        6750|  4.1010e+01|  4.1010e+01|  -10.378424|  1.2959e-06|    0.091571|
|        6760|  4.1010e+01|  4.1010e+01|  -10.380601|  1.2893e-06|    0.091573|
|        6770|  4.1010e+01|  4.1010e+01|  -10.382777|  1.2828e-06|    0.091574|
|        6780|  4.1010e+01|  4.1010e+01|  -10.384953|  1.2763e-06|    0.091575|
|        6790|  4.1010e+01|  4.1010e+01|  -10.387129|  1.2698e-06|    0.091576|
|        6800|  4.1010e+01|  4.1010e+01|  -10.389305|  1.2634e-06|    0.091577|
+-----------------------------------------------------------------------+
|        File Writing Summary       |              Filename             |
+-----------------------------------------------------------------------+
|SU2 binary restart                 |restart_flow_G8.dat                |
|Paraview                           |flow_G8.vtu                        |
|Paraview surface                   |surface_flow_G8.vtu                |
+-----------------------------------------------------------------------+
+-----------------------------------------------------------------------------+
|  Inner_Iter|     Min CFL|     Max CFL|      rms[P]|  Cauchy[CD]|          CD|
+-----------------------------------------------------------------------------+
|        6810|  4.1010e+01|  4.1010e+01|  -10.391480|  1.2570e-06|    0.091579|
|        6820|  4.1010e+01|  4.1010e+01|  -10.393655|  1.2506e-06|    0.091580|
|        6830|  4.1010e+01|  4.1010e+01|  -10.395830|  1.2443e-06|    0.091581|
|        6840|  4.1010e+01|  4.1010e+01|  -10.398005|  1.2380e-06|    0.091582|
|        6850|  4.1010e+01|  4.1010e+01|  -10.400180|  1.2318e-06|    0.091583|
|        6860|  4.1010e+01|  4.1010e+01|  -10.402353|  1.2255e-06|    0.091584|
|        6870|  4.1010e+01|  4.1010e+01|  -10.404527|  1.2193e-06|    0.091586|
|        6880|  4.1010e+01|  4.1010e+01|  -10.406700|  1.2132e-06|    0.091587|
|        6890|  4.1010e+01|  4.1010e+01|  -10.408874|  1.2071e-06|    0.091588|
|        6900|  4.1010e+01|  4.1010e+01|  -10.411047|  1.2010e-06|    0.091589|
|        6910|  4.1010e+01|  4.1010e+01|  -10.413220|  1.1949e-06|    0.091590|
|        6920|  4.1010e+01|  4.1010e+01|  -10.415393|  1.1889e-06|    0.091591|
|        6930|  4.1010e+01|  4.1010e+01|  -10.417564|  1.1829e-06|    0.091592|
|        6940|  4.1010e+01|  4.1010e+01|  -10.419736|  1.1769e-06|    0.091593|
|        6950|  4.1010e+01|  4.1010e+01|  -10.421906|  1.1710e-06|    0.091594|
|        6960|  4.1010e+01|  4.1010e+01|  -10.424076|  1.1651e-06|    0.091596|
|        6970|  4.1010e+01|  4.1010e+01|  -10.426246|  1.1592e-06|    0.091597|
|        6980|  4.1010e+01|  4.1010e+01|  -10.428416|  1.1534e-06|    0.091598|
|        6990|  4.1010e+01|  4.1010e+01|  -10.430586|  1.1475e-06|    0.091599|
|        7000|  4.1010e+01|  4.1010e+01|  -10.432755|  1.1418e-06|    0.091600|
+-----------------------------------------------------------------------+
|        File Writing Summary       |              Filename             |
+-----------------------------------------------------------------------+
|SU2 binary restart                 |restart_flow_G8.dat                |
|Paraview                           |flow_G8.vtu                        |
|Paraview surface                   |surface_flow_G8.vtu                |
+-----------------------------------------------------------------------+
+-----------------------------------------------------------------------------+
|  Inner_Iter|     Min CFL|     Max CFL|      rms[P]|  Cauchy[CD]|          CD|
+-----------------------------------------------------------------------------+
|        7010|  4.1010e+01|  4.1010e+01|  -10.434924|  1.1360e-06|    0.091601|
|        7020|  4.1010e+01|  4.1010e+01|  -10.437093|  1.1303e-06|    0.091602|
|        7030|  4.1010e+01|  4.1010e+01|  -10.439261|  1.1246e-06|    0.091603|
|        7040|  4.1010e+01|  4.1010e+01|  -10.441429|  1.1190e-06|    0.091604|
|        7050|  4.1010e+01|  4.1010e+01|  -10.443597|  1.1133e-06|    0.091605|
|        7060|  4.1010e+01|  4.1010e+01|  -10.445764|  1.1077e-06|    0.091606|
|        7070|  4.1010e+01|  4.1010e+01|  -10.447931|  1.1022e-06|    0.091607|
|        7080|  4.1010e+01|  4.1010e+01|  -10.450098|  1.0966e-06|    0.091608|
|        7090|  4.1010e+01|  4.1010e+01|  -10.452265|  1.0911e-06|    0.091609|
|        7100|  4.1010e+01|  4.1010e+01|  -10.454432|  1.0857e-06|    0.091610|
|        7110|  4.1010e+01|  4.1010e+01|  -10.456599|  1.0802e-06|    0.091611|
|        7120|  4.1010e+01|  4.1010e+01|  -10.458766|  1.0748e-06|    0.091612|
|        7130|  4.1010e+01|  4.1010e+01|  -10.460932|  1.0694e-06|    0.091613|
|        7140|  4.1010e+01|  4.1010e+01|  -10.463099|  1.0641e-06|    0.091614|
|        7150|  4.1010e+01|  4.1010e+01|  -10.465265|  1.0587e-06|    0.091615|
|        7160|  4.1010e+01|  4.1010e+01|  -10.467431|  1.0534e-06|    0.091616|
|        7170|  4.1010e+01|  4.1010e+01|  -10.469597|  1.0482e-06|    0.091617|
|        7180|  4.1010e+01|  4.1010e+01|  -10.471763|  1.0429e-06|    0.091618|
|        7190|  4.1010e+01|  4.1010e+01|  -10.473928|  1.0377e-06|    0.091619|
|        7200|  4.1010e+01|  4.1010e+01|  -10.476094|  1.0325e-06|    0.091620|
+-----------------------------------------------------------------------+
|        File Writing Summary       |              Filename             |
+-----------------------------------------------------------------------+
|SU2 binary restart                 |restart_flow_G8.dat                |
|Paraview                           |flow_G8.vtu                        |
|Paraview surface                   |surface_flow_G8.vtu                |
+-----------------------------------------------------------------------+
+-----------------------------------------------------------------------------+
|  Inner_Iter|     Min CFL|     Max CFL|      rms[P]|  Cauchy[CD]|          CD|
+-----------------------------------------------------------------------------+
|        7210|  4.1010e+01|  4.1010e+01|  -10.478259|  1.0274e-06|    0.091621|
|        7220|  4.1010e+01|  4.1010e+01|  -10.480425|  1.0222e-06|    0.091622|
|        7230|  4.1010e+01|  4.1010e+01|  -10.482590|  1.0171e-06|    0.091623|
|        7240|  4.1010e+01|  4.1010e+01|  -10.484756|  1.0121e-06|    0.091624|
|        7250|  4.1010e+01|  4.1010e+01|  -10.486922|  1.0070e-06|    0.091625|
|        7260|  4.1010e+01|  4.1010e+01|  -10.489088|  1.0020e-06|    0.091626|
|        7264|  4.1010e+01|  4.1010e+01|  -10.489955|  9.9999e-07|    0.091626|

----------------------------- Solver Exit -------------------------------
All convergence criteria satisfied.
+-----------------------------------------------------------------------+
|      Convergence Field     |     Value    |   Criterion  |  Converged |
+-----------------------------------------------------------------------+
|                      rms[P]|        -10.49|          < -9|         Yes|
|                  Cauchy[CD]|   9.99991e-07|       < 1e-06|         Yes|
+-----------------------------------------------------------------------+
-------------------------------------------------------------------------
+-----------------------------------------------------------------------+
|        File Writing Summary       |              Filename             |
+-----------------------------------------------------------------------+
|SU2 binary restart                 |restart_flow_G8.dat                |
|Paraview                           |flow_G8.vtu                        |
|Paraview surface                   |surface_flow_G8.vtu                |
+-----------------------------------------------------------------------+

------------------------- Solver Postprocessing -------------------------
Deleted CNumerics container.
Deleted CIntegration container.
Deleted CSolver container.
Deleted CIteration container.
Deleted CInterface container.
Deleted CGeometry container.
Deleted CFreeFormDefBox class.
Deleted CSurfaceMovement class.
Deleted CVolumetricMovement class.
Deleted CConfig container.
Deleted nInst container.
Deleted COutput class.
-------------------------------------------------------------------------

------------------------- Exit Success (SU2_CFD) ------------------------

