
-------------------------------------------------------------------------
|    ___ _   _ ___                                                      |
|   / __| | | |_  )   Release 7.4.0 "Blackbird"                         |
|   \__ \ |_| |/ /                                                      |
|   |___/\___//___|   Suite (Computational Fluid Dynamics Code)         |
|                                                                       |
-------------------------------------------------------------------------
| SU2 Project Website: https://su2code.github.io                        |
|                                                                       |
| The SU2 Project is maintained by the SU2 Foundation                   |
| (http://su2foundation.org)                                            |
-------------------------------------------------------------------------
| Copyright 2012-2022, SU2 Contributors                                 |
|                                                                       |
| SU2 is free software; you can redistribute it and/or                  |
| modify it under the terms of the GNU Lesser General Public            |
| License as published by the Free Software Foundation; either          |
| version 2.1 of the License, or (at your option) any later version.    |
|                                                                       |
| SU2 is distributed in the hope that it will be useful,                |
| but WITHOUT ANY WARRANTY; without even the implied warranty of        |
| MERCHANTABILITY or FITNESS FOR A PARTICULAR PURPOSE. See the GNU      |
| Lesser General Public License for more details.                       |
|                                                                       |
| You should have received a copy of the GNU Lesser General Public      |
| License along with SU2. If not, see <http://www.gnu.org/licenses/>.   |
-------------------------------------------------------------------------

Parsing config file for zone 0

----------------- Physical Case Definition ( Zone 0 ) -------------------
Incompressible RANS equations.
Turbulence model: Menter's k-omega SST-2003m with no production modification.
Hybrid RANS/LES: No Hybrid RANS/LES
No restart solution, use the values at infinity (freestream).
Non-Dimensional simulation using intialization values.
The reference area is 1 m^2.
The semi-span will be computed using the max y(3D) value.
The reference length is 1.00898 m.
Reference origin for moment evaluation is (-0.756, 0, 0).
Surface(s) where the force coefficients are evaluated: AIRFOIL.

Surface(s) plotted in the output file: AIRFOIL.
Input mesh file name: ../meshG9/meshG9.su2

--------------- Space Numerical Integration ( Zone 0 ) ------------------
Flux difference splitting (FDS) upwind scheme for the flow inviscid terms.
First order integration in space.
Average of gradients with correction (viscous flow terms).
Average of gradients with correction (viscous turbulence terms).
Gradient for upwind reconstruction: unweighted Least-Squares.
Gradient for viscous and source terms: Green-Gauss.

--------------- Time Numerical Integration  ( Zone 0 ) ------------------
Local time stepping (steady state simulation).
Euler implicit method for the flow equations.
FGMRES is used for solving the linear system.
Using a ILU(0) preconditioning.
Convergence criteria of the linear solver: 1e-06.
Max number of linear iterations: 10.
CFL adaptation. Factor down: 0.1, factor up: 1.2,
                lower limit: 1, upper limit: 1000,
                acceptable linear residual: 0.001.
Courant-Friedrichs-Lewy number:        2
Euler implicit time integration for the turbulence model.

------------------ Convergence Criteria  ( Zone 0 ) ---------------------
Maximum number of solver subiterations: 9999.
Begin convergence monitoring at iteration 10.
Residual minimum value: 1e-9.
Cauchy series min. value: 1e-06.
Number of Cauchy elements: 250.
Begin windowed time average at iteration 0.

-------------------- Output Information ( Zone 0 ) ----------------------
File writing frequency: 
+------------------------------------+
|                     File| Frequency|
+------------------------------------+
|                  RESTART|       200|
|                 PARAVIEW|       200|
|         SURFACE_PARAVIEW|       200|
+------------------------------------+
Writing the convergence history file every 1 inner iterations.
Writing the screen convergence history every 10 inner iterations.
The tabular file format is CSV (.csv).
Convergence history file name: history_G9.
Forces breakdown file name: forces_breakdown.dat.
Surface file name: surface_flow_G9.
Volume file name: flow_G9.
Restart file name: restart_flow_G9.dat.

------------- Config File Boundary Information ( Zone 0 ) ---------------
+-----------------------------------------------------------------------+
|                        Marker Type|                        Marker Name|
+-----------------------------------------------------------------------+
|                          Far-field|                           FARFIELD|
+-----------------------------------------------------------------------+
|                     Heat flux wall|                            AIRFOIL|
+-----------------------------------------------------------------------+

-------------------- Output Preprocessing ( Zone 0 ) --------------------

WARNING: SURFACE_PRESSURE_DROP can only be computed for at least 2 surfaces (outlet, inlet, ...)

Screen output fields: INNER_ITER, MIN_CFL, MAX_CFL, RMS_PRESSURE, CAUCHY_DRAG, DRAG
History output group(s): INNER_ITER, MIN_CFL, MAX_CFL, RMS_RES, LIFT, DRAG, MOMENT_Z, CAUCHY
Convergence field(s): RMS_PRESSURE, DRAG
Warning: No (valid) fields chosen for time convergence monitoring. Time convergence monitoring inactive.
Volume output fields: COORDINATES, SOLUTION, PRIMITIVE, RESIDUAL, MESH_QUALITY

------------------- Geometry Preprocessing ( Zone 0 ) -------------------
Two dimensional problem.
784445 grid points before partitioning.
782484 volume elements before partitioning.
2 surface markers.
1148 boundary elements in index 0 (Marker = AIRFOIL).
2774 boundary elements in index 1 (Marker = FARFIELD).
Executing the partitioning functions.
Building the graph adjacency structure.
Calling ParMETIS... graph partitioning complete (4453 edge cuts).
Distributing ParMETIS coloring.
Rebalancing vertices.
Rebalancing volume element connectivity.
Rebalancing markers and surface elements.
793354 vertices including ghost points. 
786931 interior elements including halo cells. 
786931 quadrilaterals.
Establishing MPI communication patterns.
Setting point connectivity.
Renumbering points (Reverse Cuthill McKee Ordering).
Recomputing point connectivity.
Setting element connectivity.
Checking the numerical grid orientation.
All volume elements are correctly orientend.
There has been a re-orientation of 1969 LINE surface elements.
Identifying edges and vertices.
Setting the control volume structure.
Area of the computational grid: 3228.88.
Searching for the closest normal neighbors to the surfaces.
Storing a mapping from global to local point index.
Compute the surface curvature.
Max K: 29375.9. Mean K: 80.9815. Standard deviation K: 951.284.
Checking for periodicity.
Computing mesh quality statistics for the dual control volumes.
+--------------------------------------------------------------+
|           Mesh Quality Metric|        Minimum|        Maximum|
+--------------------------------------------------------------+
|    Orthogonality Angle (deg.)|        76.3381|             90|
|     CV Face Area Aspect Ratio|        1.00005|         428730|
|           CV Sub-Volume Ratio|              1|        80.0003|
+--------------------------------------------------------------+
Finding max control volume width.
Communicating number of neighbors.
Wetted area = 2.05984 m.
Area projection in the x-plane = 0.121117 m, y-plane = 1.00888 m.
Max. coordinate in the x-direction = 1.00898 m, y-direction = 0.0759842 m.
Min. coordinate in the x-direction = 2.52722e-07 m, y-direction = -0.0451351 m.
Computing wall distances.

-------------------- Solver Preprocessing ( Zone 0 ) --------------------
Incompressible flow: rho_ref, vel_ref, and temp_ref
are based on the initial values, p_ref = rho_ref*vel_ref^2.
Force coefficients computed using initial values.
The reference area for force coeffs. is 1 m^2.
The reference length for force coeffs. is 1.00898 m.
The pressure is decomposed into thermodynamic and dynamic components.
The initial value of the dynamic pressure is 0.
Mach number: 0.0276748, computed using the Bulk modulus.
For external flows, the initial state is imposed at the far-field.
Angle of attack (deg): 17.9997, computed using the initial velocity.
Side slip angle (deg): 0, computed using the initial velocity.
Reynolds number per meter: 595002, computed using initial values.
Reynolds number is a byproduct of inputs only (not used internally).
SI units only. The grid should be dimensional (meters).
No energy equation.

-- Models:
+------------------------------------------------------------------------------+
|          Viscosity Model|        Conductivity Model|              Fluid Model|
+------------------------------------------------------------------------------+
|       CONSTANT_VISCOSITY|          CONSTANT_PRANDTL|         CONSTANT_DENSITY|
+------------------------------------------------------------------------------+
-- Fluid properties:
+------------------------------------------------------------------------------+
|                  Name|    Dim. value|    Ref. value|      Unit|Non-dim. value|
+------------------------------------------------------------------------------+
|             Viscosity|      1.92e-05|        11.424|   N.s/m^2|   1.68067e-06|
+------------------------------------------------------------------------------+
|        Prandtl (Lam.)|             -|             -|         -|          0.72|
|       Prandtl (Turb.)|             -|             -|         -|           0.9|
+------------------------------------------------------------------------------+
|          Bulk Modulus|        142000|             1|        Pa|        142000|
+------------------------------------------------------------------------------+
-- Initial and free-stream conditions:
+------------------------------------------------------------------------------+
|                  Name|    Dim. value|    Ref. value|      Unit|Non-dim. value|
+------------------------------------------------------------------------------+
|      Dynamic Pressure|             0|       108.757|        Pa|             0|
|        Total Pressure|       54.3785|       108.757|        Pa|           0.5|
|               Density|           1.2|           1.2|    kg/m^3|             1|
|            Velocity-X|        9.0541|       9.52003|       m/s|      0.951058|
|            Velocity-Y|        2.9418|       9.52003|       m/s|      0.309012|
|    Velocity Magnitude|       9.52003|       9.52003|       m/s|             1|
+------------------------------------------------------------------------------+
|             Viscosity|      1.92e-05|        11.424|   N.s/m^2|   1.68067e-06|
|          Conductivity|             -|       3.59317|   W/m^2.K|             -|
|     Turb. Kin. Energy|       1.35946|       90.6309|   m^2/s^2|         0.015|
|     Spec. Dissipation|       8496.65|       9.52003|       1/s|       892.503|
+------------------------------------------------------------------------------+
|           Mach Number|             -|             -|         -|     0.0276748|
|       Reynolds Number|             -|             -|         -|        595002|
+------------------------------------------------------------------------------+
Initialize Jacobian structure (Navier-Stokes). MG level: 0.
Initialize Jacobian structure (SST model).

------------------- Numerics Preprocessing ( Zone 0 ) -------------------

----------------- Integration Preprocessing ( Zone 0 ) ------------------

------------------- Iteration Preprocessing ( Zone 0 ) ------------------
Euler/Navier-Stokes/RANS fluid iteration.

------------------------------ Begin Solver -----------------------------

Simulation Run using the Single-zone Driver
+-----------------------------------------------------------------------------+
|  Inner_Iter|     Min CFL|     Max CFL|      rms[P]|  Cauchy[CD]|          CD|
+-----------------------------------------------------------------------------+
|           0|  2.4000e+00|  2.4000e+00|   -4.570814|  1.0000e+00|    0.518863|
|          10|  1.4860e+01|  1.4860e+01|   -5.309802|  3.0541e-03|    1.216732|
|          20|  7.6675e+00|  7.6675e+00|   -5.568650|  3.1866e-03|    1.257823|
|          30|  3.9563e+00|  3.9563e+00|   -5.542994|  3.2488e-03|    1.238552|
|          40|  2.4496e+01|  2.4496e+01|   -5.502869|  3.3147e-03|    1.218329|
|          50|  6.0954e+00|  6.0954e+00|   -5.443078|  3.6911e-03|    1.109536|
|          60|  3.7741e+01|  3.7741e+01|   -5.413702|  4.0023e-03|    1.026898|
|          70|  1.9474e+01|  1.9474e+01|   -5.390782|  4.4060e-03|    0.929074|
|          80|  1.0048e+01|  1.0048e+01|   -5.375407|  4.9436e-03|    0.813350|
|          90|  5.1845e+00|  5.1845e+00|   -5.366419|  5.6958e-03|    0.675481|
|         100|  3.2101e+01|  3.2101e+01|   -5.370472|  6.2513e-03|    0.588641|
|         110|  1.6564e+01|  1.6564e+01|   -5.427418|  7.1450e-03|    0.472630|
|         120|  8.5465e+00|  8.5465e+00|   -5.481596|  8.6075e-03|    0.330920|
|         130|  5.2917e+01|  5.2917e+01|   -5.500856|  1.0252e-02|    0.221665|
|         140|  2.7304e+01|  2.7304e+01|   -5.508949|  1.1530e-02|    0.162348|
|         150|  1.4088e+01|  1.4088e+01|   -5.506449|  1.2971e-02|    0.114390|
|         160|  7.2693e+00|  7.2693e+00|   -5.500685|  1.4298e-02|    0.080466|
|         170|  4.5010e+01|  4.5010e+01|   -5.495831|  1.4887e-02|    0.065750|
|         180|  2.3224e+01|  2.3224e+01|   -5.503988|  1.5354e-02|    0.054067|
|         190|  4.8157e+01|  4.8157e+01|   -5.521113|  1.6895e-02|    0.015551|
|         200|  1.7256e+01|  1.7256e+01|   -5.519499|  1.8075e-02|   -0.013941|
+-----------------------------------------------------------------------+
|        File Writing Summary       |              Filename             |
+-----------------------------------------------------------------------+
|SU2 binary restart                 |restart_flow_G9.dat                |
|Paraview                           |flow_G9.vtu                        |
|Paraview surface                   |surface_flow_G9.vtu                |
+-----------------------------------------------------------------------+
+-----------------------------------------------------------------------------+
|  Inner_Iter|     Min CFL|     Max CFL|      rms[P]|  Cauchy[CD]|          CD|
+-----------------------------------------------------------------------------+
|         210|  8.9035e+00|  8.9035e+00|   -5.520141|  1.9654e-02|   -0.053426|
|         220|  5.5128e+01|  5.5128e+01|   -5.522123|  2.1013e-02|   -0.087406|
|         230|  2.8445e+01|  2.8445e+01|   -5.533319|  2.1637e-02|   -0.103059|
|         240|  8.4936e+00|  8.4936e+00|   -5.559121|  2.2285e-02|   -0.092964|
|         250|  5.2590e+01|  5.2590e+01|   -5.557370|  2.3998e-02|   -0.050159|
|         260|  2.7135e+01|  2.7135e+01|   -5.554295|  2.2980e-02|    0.000748|
|         270|  1.1668e+01|  1.1668e+01|   -5.570900|  2.7476e-02|    0.119546|
|         280|  6.0203e+00|  6.0203e+00|   -5.597172|  3.0105e-02|    0.240881|
|         290|  3.7276e+01|  3.7276e+01|   -5.602367|  3.1114e-02|    0.316495|
|         300|  1.9234e+01|  1.9234e+01|   -5.598769|  3.1696e-02|    0.404340|
|         310|  4.7859e+01|  4.7859e+01|   -5.589300|  3.2267e-02|    0.505389|
|         320|  2.0579e+01|  2.0579e+01|   -5.594943|  3.1958e-02|    0.517640|
|         330|  1.0618e+01|  1.0618e+01|   -5.602368|  3.1572e-02|    0.498547|
|         340|  5.4787e+00|  5.4787e+00|   -5.604392|  3.1412e-02|    0.430663|
|         350|  3.3923e+01|  3.3923e+01|   -5.606671|  3.1337e-02|    0.382275|
|         360|  1.4586e+01|  1.4586e+01|   -5.622071|  3.1765e-02|    0.276886|
|         370|  7.5261e+00|  7.5261e+00|   -5.644065|  3.1956e-02|    0.185243|
|         380|  4.6600e+01|  4.6600e+01|   -5.657640|  3.1815e-02|    0.128308|
|         390|  2.4045e+01|  2.4045e+01|   -5.674256|  3.1948e-02|    0.090619|
|         400|  4.9859e+01|  4.9859e+01|   -5.687396|  3.1469e-02|    0.080226|
+-----------------------------------------------------------------------+
|        File Writing Summary       |              Filename             |
+-----------------------------------------------------------------------+
|SU2 binary restart                 |restart_flow_G9.dat                |
|Paraview                           |flow_G9.vtu                        |
|Paraview surface                   |surface_flow_G9.vtu                |
+-----------------------------------------------------------------------+
+-----------------------------------------------------------------------------+
|  Inner_Iter|     Min CFL|     Max CFL|      rms[P]|  Cauchy[CD]|          CD|
+-----------------------------------------------------------------------------+
|         410|  4.9859e+01|  4.9859e+01|   -5.678754|  3.2471e-02|    0.148764|
|         420|  4.9859e+01|  4.9859e+01|   -5.671636|  3.3348e-02|    0.216198|
|         430|  2.1438e+01|  2.1438e+01|   -5.685126|  3.3125e-02|    0.229940|
|         440|  5.3345e+01|  5.3345e+01|   -5.724997|  3.1740e-02|    0.225060|
|         450|  5.3345e+01|  5.3345e+01|   -5.796407|  3.0864e-02|    0.208673|
|         460|  5.3345e+01|  5.3345e+01|   -5.808445|  2.9642e-02|    0.228337|
|         470|  5.3345e+01|  5.3345e+01|   -5.795436|  2.8926e-02|    0.268485|
|         480|  7.6817e+00|  7.6817e+00|   -5.813867|  2.8476e-02|    0.279342|
|         490|  4.7563e+01|  4.7563e+01|   -5.825804|  2.7921e-02|    0.272904|
|         500|  2.4542e+01|  2.4542e+01|   -5.848773|  2.6413e-02|    0.259353|
|         510|  1.2663e+01|  1.2663e+01|   -5.884061|  2.4817e-02|    0.232575|
|         520|  5.4448e+01|  5.4448e+01|   -5.916224|  2.0810e-02|    0.199397|
|         530|  5.4448e+01|  5.4448e+01|   -5.970344|  1.8898e-02|    0.164438|
|         540|  2.3412e+01|  2.3412e+01|   -5.978820|  1.7893e-02|    0.161575|
|         550|  1.2080e+01|  1.2080e+01|   -5.979133|  1.7035e-02|    0.165659|
|         560|  6.2330e+00|  6.2330e+00|   -5.975325|  1.6405e-02|    0.176520|
|         570|  3.8593e+01|  3.8593e+01|   -5.974839|  1.6514e-02|    0.185777|
|         580|  1.9913e+01|  1.9913e+01|   -5.983725|  1.6648e-02|    0.199587|
|         590|  1.0275e+01|  1.0275e+01|   -6.015514|  1.6410e-02|    0.218183|
|         600|  6.3619e+01|  6.3619e+01|   -6.056153|  1.6207e-02|    0.233970|
+-----------------------------------------------------------------------+
|        File Writing Summary       |              Filename             |
+-----------------------------------------------------------------------+
|SU2 binary restart                 |restart_flow_G9.dat                |
|Paraview                           |flow_G9.vtu                        |
|Paraview surface                   |surface_flow_G9.vtu                |
+-----------------------------------------------------------------------+
+-----------------------------------------------------------------------------+
|  Inner_Iter|     Min CFL|     Max CFL|      rms[P]|  Cauchy[CD]|          CD|
+-----------------------------------------------------------------------------+
|         610|  3.2826e+01|  3.2826e+01|   -6.109587|  1.5035e-02|    0.242915|
|         620|  6.8068e+00|  6.8068e+00|   -6.204368|  1.3506e-02|    0.249939|
|         630|  4.2146e+01|  4.2146e+01|   -6.208656|  1.2049e-02|    0.247037|
|         640|  2.1746e+01|  2.1746e+01|   -6.200870|  1.0780e-02|    0.238476|
|         650|  1.1221e+01|  1.1221e+01|   -6.186014|  1.0047e-02|    0.225215|
|         660|  5.7896e+00|  5.7896e+00|   -6.178181|  8.0625e-03|    0.206762|
|         670|  3.5848e+01|  3.5848e+01|   -6.181473|  6.7867e-03|    0.197202|
|         680|  1.8497e+01|  1.8497e+01|   -6.204593|  6.8536e-03|    0.182502|
|         690|  9.5438e+00|  9.5438e+00|   -6.254497|  7.0310e-03|    0.168030|
|         700|  5.9093e+01|  5.9093e+01|   -6.284021|  6.9178e-03|    0.160238|
|         710|  3.0491e+01|  3.0491e+01|   -6.306425|  6.6824e-03|    0.155410|
|         720|  1.5732e+01|  1.5732e+01|   -6.301470|  6.0996e-03|    0.153110|
|         730|  5.6372e+01|  5.6372e+01|   -6.282153|  5.9800e-03|    0.154969|
|         740|  2.9087e+01|  2.9087e+01|   -6.271721|  5.9579e-03|    0.157766|
|         750|  1.5008e+01|  1.5008e+01|   -6.265464|  5.9169e-03|    0.164371|
|         760|  7.7439e+00|  7.7439e+00|   -6.271775|  5.6901e-03|    0.173381|
|         770|  4.7948e+01|  4.7948e+01|   -6.284106|  5.2531e-03|    0.181593|
|         780|  2.4740e+01|  2.4740e+01|   -6.315086|  4.6619e-03|    0.190360|
|         790|  1.2765e+01|  1.2765e+01|   -6.374273|  4.8352e-03|    0.202374|
|         800|  6.5867e+01|  6.5867e+01|   -6.426160|  4.9674e-03|    0.214509|
+-----------------------------------------------------------------------+
|        File Writing Summary       |              Filename             |
+-----------------------------------------------------------------------+
|SU2 binary restart                 |restart_flow_G9.dat                |
|Paraview                           |flow_G9.vtu                        |
|Paraview surface                   |surface_flow_G9.vtu                |
+-----------------------------------------------------------------------+
+-----------------------------------------------------------------------------+
|  Inner_Iter|     Min CFL|     Max CFL|      rms[P]|  Cauchy[CD]|          CD|
+-----------------------------------------------------------------------------+
|         810|  1.3658e+01|  1.3658e+01|   -6.423528|  4.8803e-03|    0.223612|
|         820|  5.8727e+01|  5.8727e+01|   -6.381329|  4.7076e-03|    0.224676|
|         830|  2.5252e+01|  2.5252e+01|   -6.358179|  4.4637e-03|    0.222378|
|         840|  1.3029e+01|  1.3029e+01|   -6.355326|  4.2265e-03|    0.215982|
|         850|  6.7228e+00|  6.7228e+00|   -6.376303|  4.1716e-03|    0.204293|
|         860|  4.1626e+01|  4.1626e+01|   -6.403068|  4.1666e-03|    0.197059|
|         870|  1.7898e+01|  1.7898e+01|   -6.458943|  4.3652e-03|    0.181859|
|         880|  9.2352e+00|  9.2352e+00|   -6.491785|  4.6365e-03|    0.168027|
|         890|  5.7182e+01|  5.7182e+01|   -6.494456|  4.7312e-03|    0.158425|
|         900|  2.9505e+01|  2.9505e+01|   -6.481289|  4.7005e-03|    0.150767|
|         910|  1.5224e+01|  1.5224e+01|   -6.453757|  4.5031e-03|    0.145360|
|         920|  7.8551e+00|  7.8551e+00|   -6.427290|  4.3658e-03|    0.144258|
|         930|  4.8637e+01|  4.8637e+01|   -6.421905|  4.1240e-03|    0.146807|
|         940|  2.0913e+01|  2.0913e+01|   -6.441907|  4.0156e-03|    0.155296|
|         950|  1.0791e+01|  1.0791e+01|   -6.505128|  4.1881e-03|    0.170142|
|         960|  6.6813e+01|  6.6813e+01|   -6.554991|  4.3490e-03|    0.182700|
|         970|  3.4474e+01|  3.4474e+01|   -6.595955|  4.4695e-03|    0.191156|
|         980|  8.5782e+00|  8.5782e+00|   -6.598910|  4.6560e-03|    0.203073|
|         990|  5.3114e+01|  5.3114e+01|   -6.579305|  4.6288e-03|    0.205330|
|        1000|  2.7406e+01|  2.7406e+01|   -6.561263|  4.4775e-03|    0.204907|
+-----------------------------------------------------------------------+
|        File Writing Summary       |              Filename             |
+-----------------------------------------------------------------------+
|SU2 binary restart                 |restart_flow_G9.dat                |
|Paraview                           |flow_G9.vtu                        |
|Paraview surface                   |surface_flow_G9.vtu                |
+-----------------------------------------------------------------------+
+-----------------------------------------------------------------------------+
|  Inner_Iter|     Min CFL|     Max CFL|      rms[P]|  Cauchy[CD]|          CD|
+-----------------------------------------------------------------------------+
|        1010|  9.8199e+00|  9.8199e+00|   -6.565647|  4.3783e-03|    0.199190|
|        1020|  6.0802e+01|  6.0802e+01|   -6.579565|  4.2999e-03|    0.193980|
|        1030|  3.1373e+01|  3.1373e+01|   -6.602431|  4.2212e-03|    0.188772|
|        1040|  1.6188e+01|  1.6188e+01|   -6.615526|  4.0855e-03|    0.183755|
|        1050|  8.3525e+00|  8.3525e+00|   -6.615035|  3.9416e-03|    0.179749|
|        1060|  5.1716e+01|  5.1716e+01|   -6.612323|  3.8350e-03|    0.177116|
|        1070|  1.2869e+01|  1.2869e+01|   -6.624367|  3.8984e-03|    0.172986|
|        1080|  5.5333e+01|  5.5333e+01|   -6.650094|  3.9561e-03|    0.168770|
|        1090|  1.6522e+01|  1.6522e+01|   -6.711717|  3.9523e-03|    0.164070|
|        1100|  8.5251e+00|  8.5251e+00|   -6.773912|  3.8277e-03|    0.160071|
|        1110|  5.2785e+01|  5.2785e+01|   -6.798828|  3.7171e-03|    0.158721|
|        1120|  2.2697e+01|  2.2697e+01|   -6.823987|  3.4066e-03|    0.158979|
|        1130|  5.6477e+01|  5.6477e+01|   -6.833683|  3.2193e-03|    0.164276|
|        1140|  5.6477e+01|  5.6477e+01|   -6.835939|  3.2497e-03|    0.175637|
|        1150|  2.9141e+01|  2.9141e+01|   -6.834376|  3.1461e-03|    0.179893|
|        1160|  1.5036e+01|  1.5036e+01|   -6.829881|  3.0828e-03|    0.183680|
|        1170|  7.7583e+00|  7.7583e+00|   -6.826021|  3.0565e-03|    0.184148|
|        1180|  4.8037e+01|  4.8037e+01|   -6.828171|  3.0139e-03|    0.182891|
|        1190|  2.4786e+01|  2.4786e+01|   -6.838582|  2.8507e-03|    0.180142|
|        1200|  1.2789e+01|  1.2789e+01|   -6.857805|  2.5652e-03|    0.176696|
+-----------------------------------------------------------------------+
|        File Writing Summary       |              Filename             |
+-----------------------------------------------------------------------+
|SU2 binary restart                 |restart_flow_G9.dat                |
|Paraview                           |flow_G9.vtu                        |
|Paraview surface                   |surface_flow_G9.vtu                |
+-----------------------------------------------------------------------+
+-----------------------------------------------------------------------------+
|  Inner_Iter|     Min CFL|     Max CFL|      rms[P]|  Cauchy[CD]|          CD|
+-----------------------------------------------------------------------------+
|        1210|  5.4991e+01|  5.4991e+01|   -6.882498|  2.3641e-03|    0.173094|
|        1220|  1.3683e+01|  1.3683e+01|   -6.929913|  2.2465e-03|    0.170406|
|        1230|  7.0603e+00|  7.0603e+00|   -6.960889|  2.0277e-03|    0.169461|
|        1240|  4.3716e+01|  4.3716e+01|   -6.983818|  1.9854e-03|    0.169382|
|        1250|  2.2556e+01|  2.2556e+01|   -7.013081|  1.9755e-03|    0.169484|
|        1260|  1.1639e+01|  1.1639e+01|   -7.033134|  1.8647e-03|    0.169404|
|        1270|  6.0053e+01|  6.0053e+01|   -7.043459|  1.7704e-03|    0.168897|
|        1280|  6.0053e+01|  6.0053e+01|   -7.077576|  1.7055e-03|    0.167046|
|        1290|  1.4943e+01|  1.4943e+01|   -7.097691|  1.6170e-03|    0.166235|
|        1300|  6.4252e+01|  6.4252e+01|   -7.098477|  1.5352e-03|    0.166385|
|        1310|  6.4252e+01|  6.4252e+01|   -7.123348|  1.5132e-03|    0.167933|
|        1320|  6.4252e+01|  6.4252e+01|   -7.254415|  1.4369e-03|    0.168668|
|        1330|  6.4252e+01|  6.4252e+01|   -7.294406|  1.3579e-03|    0.167832|
|        1340|  3.3153e+01|  3.3153e+01|   -7.219454|  1.2516e-03|    0.167543|
|        1350|  1.7106e+01|  1.7106e+01|   -7.153914|  1.1565e-03|    0.167652|
|        1360|  8.8264e+00|  8.8264e+00|   -7.118502|  1.1435e-03|    0.168529|
|        1370|  5.4651e+01|  5.4651e+01|   -7.119270|  1.1528e-03|    0.169449|
|        1380|  2.3499e+01|  2.3499e+01|   -7.151013|  1.0611e-03|    0.171118|
|        1390|  7.0167e+01|  7.0167e+01|   -7.214088|  8.4257e-04|    0.173188|
|        1400|  3.0170e+01|  3.0170e+01|   -7.256400|  7.5720e-04|    0.173630|
+-----------------------------------------------------------------------+
|        File Writing Summary       |              Filename             |
+-----------------------------------------------------------------------+
|SU2 binary restart                 |restart_flow_G9.dat                |
|Paraview                           |flow_G9.vtu                        |
|Paraview surface                   |surface_flow_G9.vtu                |
+-----------------------------------------------------------------------+
+-----------------------------------------------------------------------------+
|  Inner_Iter|     Min CFL|     Max CFL|      rms[P]|  Cauchy[CD]|          CD|
+-----------------------------------------------------------------------------+
|        1410|  7.5074e+01|  7.5074e+01|   -7.300193|  7.0360e-04|    0.172356|
|        1420|  3.2280e+01|  3.2280e+01|   -7.341472|  7.0621e-04|    0.171116|
|        1430|  1.6656e+01|  1.6656e+01|   -7.398241|  7.2220e-04|    0.169271|
|        1440|  7.1618e+01|  7.1618e+01|   -7.418747|  7.0794e-04|    0.167320|
|        1450|  7.1618e+01|  7.1618e+01|   -7.361329|  6.7005e-04|    0.165678|
|        1460|  1.7821e+01|  1.7821e+01|   -7.372619|  5.9434e-04|    0.165922|
|        1470|  9.1951e+00|  9.1951e+00|   -7.431647|  5.5496e-04|    0.166892|
|        1480|  5.6934e+01|  5.6934e+01|   -7.473889|  5.5410e-04|    0.167787|
|        1490|  2.9377e+01|  2.9377e+01|   -7.520473|  5.8726e-04|    0.169265|
|        1500|  1.5158e+01|  1.5158e+01|   -7.489038|  6.2766e-04|    0.171088|
|        1510|  7.8210e+00|  7.8210e+00|   -7.417540|  6.7729e-04|    0.173336|
|        1520|  4.8426e+01|  4.8426e+01|   -7.370327|  6.9010e-04|    0.174414|
|        1530|  6.9733e+01|  6.9733e+01|   -7.305661|  7.0202e-04|    0.176877|
|        1540|  6.9733e+01|  6.9733e+01|   -7.295730|  6.9685e-04|    0.177051|
|        1550|  6.9733e+01|  6.9733e+01|   -7.311714|  7.2902e-04|    0.175346|
|        1560|  6.9733e+01|  6.9733e+01|   -7.372745|  7.3277e-04|    0.173569|
|        1570|  6.9733e+01|  6.9733e+01|   -7.461709|  7.2658e-04|    0.173188|
|        1580|  6.9733e+01|  6.9733e+01|   -7.499752|  7.3565e-04|    0.174446|
|        1590|  6.9733e+01|  6.9733e+01|   -7.496043|  7.7891e-04|    0.176649|
|        1600|  6.9733e+01|  6.9733e+01|   -7.483009|  8.2498e-04|    0.178865|
+-----------------------------------------------------------------------+
|        File Writing Summary       |              Filename             |
+-----------------------------------------------------------------------+
|SU2 binary restart                 |restart_flow_G9.dat                |
|Paraview                           |flow_G9.vtu                        |
|Paraview surface                   |surface_flow_G9.vtu                |
+-----------------------------------------------------------------------+
+-----------------------------------------------------------------------------+
|  Inner_Iter|     Min CFL|     Max CFL|      rms[P]|  Cauchy[CD]|          CD|
+-----------------------------------------------------------------------------+
|        1610|  2.0822e+01|  2.0822e+01|   -7.469990|  8.2794e-04|    0.179934|
|        1620|  1.0744e+01|  1.0744e+01|   -7.459214|  8.2253e-04|    0.180672|
|        1630|  6.6523e+01|  6.6523e+01|   -7.455095|  7.9276e-04|    0.181098|
|        1640|  3.4324e+01|  3.4324e+01|   -7.453915|  7.5160e-04|    0.181410|
|        1650|  1.4759e+01|  1.4759e+01|   -7.456980|  7.4969e-04|    0.181786|
|        1660|  7.6152e+00|  7.6152e+00|   -7.460421|  7.2619e-04|    0.182063|
|        1670|  4.7151e+01|  4.7151e+01|   -7.463578|  7.0041e-04|    0.182206|
|        1680|  2.4329e+01|  2.4329e+01|   -7.463611|  6.6246e-04|    0.182454|
|        1690|  1.2553e+01|  1.2553e+01|   -7.456248|  6.2339e-04|    0.182788|
|        1700|  7.7726e+01|  7.7726e+01|   -7.448807|  5.8995e-04|    0.183065|
|        1710|  4.0105e+01|  4.0105e+01|   -7.440184|  5.8801e-04|    0.183286|
|        1720|  2.0693e+01|  2.0693e+01|   -7.426885|  5.7198e-04|    0.183619|
|        1730|  1.0677e+01|  1.0677e+01|   -7.412689|  5.5921e-04|    0.184015|
|        1740|  6.6111e+01|  6.6111e+01|   -7.410805|  5.2933e-04|    0.184254|
|        1750|  3.4112e+01|  3.4112e+01|   -7.409142|  4.9247e-04|    0.184528|
|        1760|  1.7601e+01|  1.7601e+01|   -7.410256|  4.4863e-04|    0.184913|
|        1770|  7.5681e+01|  7.5681e+01|   -7.412808|  4.3422e-04|    0.185394|
|        1780|  7.5681e+01|  7.5681e+01|   -7.425611|  3.9844e-04|    0.186335|
|        1790|  7.5681e+01|  7.5681e+01|   -7.440229|  4.1089e-04|    0.187586|
|        1800|  7.5681e+01|  7.5681e+01|   -7.452840|  4.0041e-04|    0.188916|
+-----------------------------------------------------------------------+
|        File Writing Summary       |              Filename             |
+-----------------------------------------------------------------------+
|SU2 binary restart                 |restart_flow_G9.dat                |
|Paraview                           |flow_G9.vtu                        |
|Paraview surface                   |surface_flow_G9.vtu                |
+-----------------------------------------------------------------------+
+-----------------------------------------------------------------------------+
|  Inner_Iter|     Min CFL|     Max CFL|      rms[P]|  Cauchy[CD]|          CD|
+-----------------------------------------------------------------------------+
|        1810|  7.5681e+01|  7.5681e+01|   -7.465115|  3.8223e-04|    0.189987|
|        1820|  7.5681e+01|  7.5681e+01|   -7.482145|  3.8236e-04|    0.190566|
|        1830|  7.5681e+01|  7.5681e+01|   -7.506223|  3.5701e-04|    0.190738|
|        1840|  7.5681e+01|  7.5681e+01|   -7.537953|  3.0853e-04|    0.190819|
|        1850|  7.5681e+01|  7.5681e+01|   -7.576502|  2.6454e-04|    0.191097|
|        1860|  7.5681e+01|  7.5681e+01|   -7.615718|  2.5265e-04|    0.191668|
|        1870|  3.2541e+01|  3.2541e+01|   -7.632215|  2.4182e-04|    0.191934|
|        1880|  1.6791e+01|  1.6791e+01|   -7.647921|  2.4140e-04|    0.192366|
|        1890|  7.2197e+01|  7.2197e+01|   -7.660908|  2.4339e-04|    0.192793|
|        1900|  7.2197e+01|  7.2197e+01|   -7.688943|  2.4630e-04|    0.193333|
|        1910|  7.2197e+01|  7.2197e+01|   -7.713862|  2.4752e-04|    0.193687|
|        1920|  7.2197e+01|  7.2197e+01|   -7.729445|  2.4698e-04|    0.193813|
|        1930|  7.2197e+01|  7.2197e+01|   -7.731963|  2.4211e-04|    0.193793|
|        1940|  7.2197e+01|  7.2197e+01|   -7.724664|  2.3564e-04|    0.193752|
|        1950|  7.2197e+01|  7.2197e+01|   -7.714137|  2.2991e-04|    0.193761|
|        1960|  7.2197e+01|  7.2197e+01|   -7.705426|  2.2572e-04|    0.193792|
|        1970|  7.2197e+01|  7.2197e+01|   -7.699962|  2.1876e-04|    0.193786|
|        1980|  7.2197e+01|  7.2197e+01|   -7.696482|  2.1123e-04|    0.193734|
|        1990|  7.2197e+01|  7.2197e+01|   -7.693053|  2.0732e-04|    0.193672|
|        2000|  7.2197e+01|  7.2197e+01|   -7.689179|  2.0239e-04|    0.193622|
+-----------------------------------------------------------------------+
|        File Writing Summary       |              Filename             |
+-----------------------------------------------------------------------+
|SU2 binary restart                 |restart_flow_G9.dat                |
|Paraview                           |flow_G9.vtu                        |
|Paraview surface                   |surface_flow_G9.vtu                |
+-----------------------------------------------------------------------+
+-----------------------------------------------------------------------------+
|  Inner_Iter|     Min CFL|     Max CFL|      rms[P]|  Cauchy[CD]|          CD|
+-----------------------------------------------------------------------------+
|        2010|  7.2197e+01|  7.2197e+01|   -7.686028|  1.9525e-04|    0.193566|
|        2020|  7.2197e+01|  7.2197e+01|   -7.684684|  1.8687e-04|    0.193468|
|        2030|  7.2197e+01|  7.2197e+01|   -7.684791|  1.7010e-04|    0.193299|
|        2040|  7.2197e+01|  7.2197e+01|   -7.684831|  1.4856e-04|    0.193048|
|        2050|  7.2197e+01|  7.2197e+01|   -7.684248|  1.2676e-04|    0.192737|
|        2060|  7.2197e+01|  7.2197e+01|   -7.684319|  1.1092e-04|    0.192412|
|        2070|  7.2197e+01|  7.2197e+01|   -7.686362|  1.0478e-04|    0.192121|
|        2080|  7.2197e+01|  7.2197e+01|   -7.690014|  1.0601e-04|    0.191888|
|        2090|  7.2197e+01|  7.2197e+01|   -7.693705|  1.0827e-04|    0.191699|
|        2100|  7.2197e+01|  7.2197e+01|   -7.696355|  1.0627e-04|    0.191516|
|        2110|  7.2197e+01|  7.2197e+01|   -7.698355|  9.8675e-05|    0.191308|
|        2120|  7.2197e+01|  7.2197e+01|   -7.701266|  9.8167e-05|    0.191067|
|        2130|  7.2197e+01|  7.2197e+01|   -7.706974|  9.4721e-05|    0.190803|
|        2140|  1.7965e+01|  1.7965e+01|   -7.714271|  8.9117e-05|    0.190647|
|        2150|  9.2695e+00|  9.2695e+00|   -7.719103|  8.0411e-05|    0.190529|
|        2160|  5.7394e+01|  5.7394e+01|   -7.724410|  7.4765e-05|    0.190449|
|        2170|  6.8873e+01|  6.8873e+01|   -7.737131|  7.7707e-05|    0.190186|
|        2180|  6.8873e+01|  6.8873e+01|   -7.754923|  8.2584e-05|    0.189927|
|        2190|  6.8873e+01|  6.8873e+01|   -7.773742|  8.6955e-05|    0.189679|
|        2200|  6.8873e+01|  6.8873e+01|   -7.792962|  9.1920e-05|    0.189429|
+-----------------------------------------------------------------------+
|        File Writing Summary       |              Filename             |
+-----------------------------------------------------------------------+
|SU2 binary restart                 |restart_flow_G9.dat                |
|Paraview                           |flow_G9.vtu                        |
|Paraview surface                   |surface_flow_G9.vtu                |
+-----------------------------------------------------------------------+
+-----------------------------------------------------------------------------+
|  Inner_Iter|     Min CFL|     Max CFL|      rms[P]|  Cauchy[CD]|          CD|
+-----------------------------------------------------------------------------+
|        2210|  6.8873e+01|  6.8873e+01|   -7.812173|  9.6543e-05|    0.189180|
|        2220|  6.8873e+01|  6.8873e+01|   -7.831344|  1.0118e-04|    0.188946|
|        2230|  6.8873e+01|  6.8873e+01|   -7.849932|  1.0447e-04|    0.188740|
|        2240|  6.8873e+01|  6.8873e+01|   -7.865820|  1.0718e-04|    0.188552|
|        2250|  6.8873e+01|  6.8873e+01|   -7.876602|  1.1019e-04|    0.188361|
|        2260|  6.8873e+01|  6.8873e+01|   -7.880443|  1.1342e-04|    0.188155|
|        2270|  6.8873e+01|  6.8873e+01|   -7.877651|  1.1603e-04|    0.187937|
|        2280|  6.8873e+01|  6.8873e+01|   -7.870409|  1.1718e-04|    0.187719|
|        2290|  6.8873e+01|  6.8873e+01|   -7.860633|  1.1660e-04|    0.187502|
|        2300|  6.8873e+01|  6.8873e+01|   -7.850155|  1.1472e-04|    0.187288|
|        2310|  6.8873e+01|  6.8873e+01|   -7.840346|  1.1244e-04|    0.187078|
|        2320|  6.8873e+01|  6.8873e+01|   -7.832285|  1.1079e-04|    0.186873|
|        2330|  6.8873e+01|  6.8873e+01|   -7.826570|  1.1032e-04|    0.186669|
|        2340|  6.8873e+01|  6.8873e+01|   -7.823270|  1.1076e-04|    0.186464|
|        2350|  6.8873e+01|  6.8873e+01|   -7.822345|  1.1128e-04|    0.186262|
|        2360|  6.8873e+01|  6.8873e+01|   -7.823855|  1.1119e-04|    0.186064|
|        2370|  6.8873e+01|  6.8873e+01|   -7.827806|  1.1029e-04|    0.185871|
|        2380|  6.8873e+01|  6.8873e+01|   -7.834010|  1.0884e-04|    0.185682|
|        2390|  6.8873e+01|  6.8873e+01|   -7.842236|  1.0965e-04|    0.185492|
|        2400|  6.8873e+01|  6.8873e+01|   -7.852385|  1.1130e-04|    0.185300|
+-----------------------------------------------------------------------+
|        File Writing Summary       |              Filename             |
+-----------------------------------------------------------------------+
|SU2 binary restart                 |restart_flow_G9.dat                |
|Paraview                           |flow_G9.vtu                        |
|Paraview surface                   |surface_flow_G9.vtu                |
+-----------------------------------------------------------------------+
+-----------------------------------------------------------------------------+
|  Inner_Iter|     Min CFL|     Max CFL|      rms[P]|  Cauchy[CD]|          CD|
+-----------------------------------------------------------------------------+
|        2410|  6.8873e+01|  6.8873e+01|   -7.864406|  1.1383e-04|    0.185106|
|        2420|  6.8873e+01|  6.8873e+01|   -7.878065|  1.1255e-04|    0.184909|
|        2430|  9.9177e+00|  9.9177e+00|   -7.893198|  1.1064e-04|    0.184746|
|        2440|  6.1408e+01|  6.1408e+01|   -7.898784|  1.0696e-04|    0.184674|
|        2450|  3.1685e+01|  3.1685e+01|   -7.905452|  1.0311e-04|    0.184609|
|        2460|  6.5702e+01|  6.5702e+01|   -7.914800|  1.0131e-04|    0.184449|
|        2470|  6.5702e+01|  6.5702e+01|   -7.930719|  1.0063e-04|    0.184252|
|        2480|  6.5702e+01|  6.5702e+01|   -7.946688|  1.0041e-04|    0.184061|
|        2490|  6.5702e+01|  6.5702e+01|   -7.963384|  1.0056e-04|    0.183871|
|        2500|  6.5702e+01|  6.5702e+01|   -7.980471|  1.0066e-04|    0.183681|
|        2510|  6.5702e+01|  6.5702e+01|   -7.997985|  1.0038e-04|    0.183492|
|        2520|  6.5702e+01|  6.5702e+01|   -8.015717|  9.9844e-05|    0.183304|
|        2530|  6.5702e+00|  6.5702e+00|   -8.033229|  9.9226e-05|    0.183119|
|        2540|  4.0681e+01|  4.0681e+01|   -8.041937|  9.5611e-05|    0.183073|
|        2550|  2.0991e+01|  2.0991e+01|   -8.049868|  9.2664e-05|    0.182999|
|        2560|  6.2678e+01|  6.2678e+01|   -8.057416|  9.0835e-05|    0.182878|
|        2570|  6.2678e+01|  6.2678e+01|   -8.072548|  9.0283e-05|    0.182702|
|        2580|  6.2678e+01|  6.2678e+01|   -8.086966|  8.9747e-05|    0.182527|
|        2590|  6.2678e+01|  6.2678e+01|   -8.099135|  8.9206e-05|    0.182352|
|        2600|  6.2678e+01|  6.2678e+01|   -8.108914|  8.8704e-05|    0.182177|
+-----------------------------------------------------------------------+
|        File Writing Summary       |              Filename             |
+-----------------------------------------------------------------------+
|SU2 binary restart                 |restart_flow_G9.dat                |
|Paraview                           |flow_G9.vtu                        |
|Paraview surface                   |surface_flow_G9.vtu                |
+-----------------------------------------------------------------------+
+-----------------------------------------------------------------------------+
|  Inner_Iter|     Min CFL|     Max CFL|      rms[P]|  Cauchy[CD]|          CD|
+-----------------------------------------------------------------------------+
|        2610|  6.2678e+01|  6.2678e+01|   -8.116211|  8.8316e-05|    0.182001|
|        2620|  6.2678e+01|  6.2678e+01|   -8.120948|  8.8056e-05|    0.181825|
|        2630|  6.2678e+01|  6.2678e+01|   -8.123470|  8.7867e-05|    0.181648|
|        2640|  6.2678e+01|  6.2678e+01|   -8.123750|  8.7644e-05|    0.181472|
|        2650|  6.2678e+01|  6.2678e+01|   -8.122369|  8.7336e-05|    0.181299|
|        2660|  6.2678e+01|  6.2678e+01|   -8.120108|  8.6976e-05|    0.181125|
|        2670|  6.2678e+01|  6.2678e+01|   -8.117848|  8.6598e-05|    0.180949|
|        2680|  6.2678e+01|  6.2678e+01|   -8.116404|  8.6955e-05|    0.180773|
|        2690|  6.2678e+01|  6.2678e+01|   -8.115959|  8.9301e-05|    0.180597|
|        2700|  6.2678e+01|  6.2678e+01|   -8.116672|  9.1781e-05|    0.180421|
|        2710|  6.2678e+01|  6.2678e+01|   -8.118979|  9.2227e-05|    0.180245|
|        2720|  6.2678e+01|  6.2678e+01|   -8.123232|  9.1891e-05|    0.180068|
|        2730|  6.2678e+01|  6.2678e+01|   -8.129459|  9.1655e-05|    0.179892|
|        2740|  6.2678e+01|  6.2678e+01|   -8.137422|  9.1443e-05|    0.179716|
|        2750|  6.2678e+01|  6.2678e+01|   -8.146914|  9.1221e-05|    0.179540|
|        2760|  6.2678e+01|  6.2678e+01|   -8.157883|  9.1060e-05|    0.179362|
|        2770|  6.2678e+01|  6.2678e+01|   -8.170224|  9.0972e-05|    0.179183|
|        2780|  6.2678e+01|  6.2678e+01|   -8.183585|  9.0975e-05|    0.179002|
|        2790|  6.2678e+01|  6.2678e+01|   -8.197489|  9.4040e-05|    0.178820|
|        2800|  6.2678e+01|  6.2678e+01|   -8.211609|  9.6520e-05|    0.178637|
+-----------------------------------------------------------------------+
|        File Writing Summary       |              Filename             |
+-----------------------------------------------------------------------+
|SU2 binary restart                 |restart_flow_G9.dat                |
|Paraview                           |flow_G9.vtu                        |
|Paraview surface                   |surface_flow_G9.vtu                |
+-----------------------------------------------------------------------+
+-----------------------------------------------------------------------------+
|  Inner_Iter|     Min CFL|     Max CFL|      rms[P]|  Cauchy[CD]|          CD|
+-----------------------------------------------------------------------------+
|        2810|  6.2678e+01|  6.2678e+01|   -8.225837|  9.7994e-05|    0.178453|
|        2820|  6.2678e+01|  6.2678e+01|   -8.240103|  9.8286e-05|    0.178268|
|        2830|  6.2678e+01|  6.2678e+01|   -8.254203|  9.8590e-05|    0.178084|
|        2840|  6.2678e+01|  6.2678e+01|   -8.267841|  9.8895e-05|    0.177899|
|        2850|  6.2678e+01|  6.2678e+01|   -8.280785|  9.9199e-05|    0.177715|
|        2860|  6.2678e+01|  6.2678e+01|   -8.292949|  9.9498e-05|    0.177530|
|        2870|  6.2678e+01|  6.2678e+01|   -8.304339|  9.9789e-05|    0.177345|
|        2880|  6.2678e+01|  6.2678e+01|   -8.314973|  1.0007e-04|    0.177160|
|        2890|  6.2678e+01|  6.2678e+01|   -8.324860|  1.0037e-04|    0.176975|
|        2900|  6.2678e+01|  6.2678e+01|   -8.334010|  1.0070e-04|    0.176791|
|        2910|  6.2678e+01|  6.2678e+01|   -8.342428|  1.0101e-04|    0.176608|
|        2920|  6.2678e+01|  6.2678e+01|   -8.350112|  1.0125e-04|    0.176427|
|        2930|  6.2678e+01|  6.2678e+01|   -8.357072|  1.0145e-04|    0.176246|
|        2940|  6.2678e+01|  6.2678e+01|   -8.363366|  1.0163e-04|    0.176067|
|        2950|  6.2678e+01|  6.2678e+01|   -8.369114|  1.0177e-04|    0.175889|
|        2960|  6.2678e+01|  6.2678e+01|   -8.374477|  1.0186e-04|    0.175713|
|        2970|  6.2678e+01|  6.2678e+01|   -8.379618|  1.0190e-04|    0.175539|
|        2980|  6.2678e+01|  6.2678e+01|   -8.384684|  1.0191e-04|    0.175366|
|        2990|  6.2678e+01|  6.2678e+01|   -8.389801|  1.0189e-04|    0.175196|
|        3000|  6.2678e+01|  6.2678e+01|   -8.395074|  1.0182e-04|    0.175027|
+-----------------------------------------------------------------------+
|        File Writing Summary       |              Filename             |
+-----------------------------------------------------------------------+
|SU2 binary restart                 |restart_flow_G9.dat                |
|Paraview                           |flow_G9.vtu                        |
|Paraview surface                   |surface_flow_G9.vtu                |
+-----------------------------------------------------------------------+
+-----------------------------------------------------------------------------+
|  Inner_Iter|     Min CFL|     Max CFL|      rms[P]|  Cauchy[CD]|          CD|
+-----------------------------------------------------------------------------+
|        3010|  6.2678e+01|  6.2678e+01|   -8.400578|  1.0166e-04|    0.174861|
|        3020|  6.2678e+01|  6.2678e+01|   -8.406350|  1.0140e-04|    0.174698|
|        3030|  6.2678e+01|  6.2678e+01|   -8.412402|  1.0105e-04|    0.174537|
|        3040|  6.2678e+01|  6.2678e+01|   -8.418723|  1.0061e-04|    0.174378|
|        3050|  6.2678e+01|  6.2678e+01|   -8.425275|  1.0007e-04|    0.174223|
|        3060|  6.2678e+01|  6.2678e+01|   -8.431989|  9.9446e-05|    0.174071|
|        3070|  6.2678e+01|  6.2678e+01|   -8.438763|  9.8738e-05|    0.173922|
|        3080|  6.2678e+01|  6.2678e+01|   -8.445486|  9.7954e-05|    0.173776|
|        3090|  6.2678e+01|  6.2678e+01|   -8.452068|  9.7096e-05|    0.173633|
|        3100|  6.2678e+01|  6.2678e+01|   -8.458457|  9.6155e-05|    0.173494|
|        3110|  6.2678e+01|  6.2678e+01|   -8.464720|  9.5127e-05|    0.173358|
|        3120|  6.2678e+01|  6.2678e+01|   -8.470995|  9.4008e-05|    0.173226|
|        3130|  6.2678e+01|  6.2678e+01|   -8.477053|  9.2807e-05|    0.173097|
|        3140|  6.2678e+01|  6.2678e+01|   -8.483098|  9.1536e-05|    0.172972|
|        3150|  6.2678e+01|  6.2678e+01|   -8.489156|  9.0200e-05|    0.172850|
|        3160|  6.2678e+01|  6.2678e+01|   -8.495349|  8.8805e-05|    0.172731|
|        3170|  6.2678e+01|  6.2678e+01|   -8.501773|  8.7357e-05|    0.172616|
|        3180|  6.2678e+01|  6.2678e+01|   -8.508543|  8.5859e-05|    0.172503|
|        3190|  6.2678e+01|  6.2678e+01|   -8.515747|  8.4317e-05|    0.172395|
|        3200|  6.2678e+01|  6.2678e+01|   -8.523375|  8.2734e-05|    0.172289|
+-----------------------------------------------------------------------+
|        File Writing Summary       |              Filename             |
+-----------------------------------------------------------------------+
|SU2 binary restart                 |restart_flow_G9.dat                |
|Paraview                           |flow_G9.vtu                        |
|Paraview surface                   |surface_flow_G9.vtu                |
+-----------------------------------------------------------------------+
+-----------------------------------------------------------------------------+
|  Inner_Iter|     Min CFL|     Max CFL|      rms[P]|  Cauchy[CD]|          CD|
+-----------------------------------------------------------------------------+
|        3210|  6.2678e+01|  6.2678e+01|   -8.531370|  8.1113e-05|    0.172186|
|        3220|  6.2678e+01|  6.2678e+01|   -8.539634|  7.9460e-05|    0.172086|
|        3230|  6.2678e+01|  6.2678e+01|   -8.548060|  7.7780e-05|    0.171989|
|        3240|  6.2678e+01|  6.2678e+01|   -8.556551|  7.6076e-05|    0.171895|
|        3250|  6.2678e+01|  6.2678e+01|   -8.565010|  7.4355e-05|    0.171804|
|        3260|  2.2458e+01|  2.2458e+01|   -8.572386|  7.1446e-05|    0.171766|
|        3270|  1.1588e+01|  1.1588e+01|   -8.576603|  6.8734e-05|    0.171721|
|        3280|  5.9792e+01|  5.9792e+01|   -8.578840|  6.6017e-05|    0.171680|
|        3290|  5.9792e+01|  5.9792e+01|   -8.584410|  6.4272e-05|    0.171599|
|        3300|  5.9792e+01|  5.9792e+01|   -8.592177|  6.2533e-05|    0.171521|
|        3310|  5.9792e+01|  5.9792e+01|   -8.599465|  6.0824e-05|    0.171444|
|        3320|  5.9792e+01|  5.9792e+01|   -8.606540|  5.9140e-05|    0.171369|
|        3330|  5.9792e+01|  5.9792e+01|   -8.613177|  5.7467e-05|    0.171297|
|        3340|  5.9792e+01|  5.9792e+01|   -8.619745|  5.5794e-05|    0.171228|
|        3350|  5.9792e+01|  5.9792e+01|   -8.626321|  5.4134e-05|    0.171162|
|        3360|  5.9792e+01|  5.9792e+01|   -8.632887|  5.2502e-05|    0.171098|
|        3370|  5.9792e+01|  5.9792e+01|   -8.639469|  5.0909e-05|    0.171035|
|        3380|  5.9792e+01|  5.9792e+01|   -8.645926|  4.9353e-05|    0.170974|
|        3390|  5.9792e+01|  5.9792e+01|   -8.652300|  4.7827e-05|    0.170916|
|        3400|  5.9792e+01|  5.9792e+01|   -8.658823|  4.6332e-05|    0.170859|
+-----------------------------------------------------------------------+
|        File Writing Summary       |              Filename             |
+-----------------------------------------------------------------------+
|SU2 binary restart                 |restart_flow_G9.dat                |
|Paraview                           |flow_G9.vtu                        |
|Paraview surface                   |surface_flow_G9.vtu                |
+-----------------------------------------------------------------------+
+-----------------------------------------------------------------------------+
|  Inner_Iter|     Min CFL|     Max CFL|      rms[P]|  Cauchy[CD]|          CD|
+-----------------------------------------------------------------------------+
|        3410|  5.9792e+01|  5.9792e+01|   -8.665560|  4.4864e-05|    0.170804|
|        3420|  5.9792e+01|  5.9792e+01|   -8.672492|  4.3418e-05|    0.170752|
|        3430|  5.9792e+01|  5.9792e+01|   -8.679537|  4.1995e-05|    0.170702|
|        3440|  5.9792e+01|  5.9792e+01|   -8.686650|  4.0598e-05|    0.170654|
|        3450|  5.9792e+01|  5.9792e+01|   -8.693961|  3.9231e-05|    0.170607|
|        3460|  5.9792e+01|  5.9792e+01|   -8.701574|  3.7892e-05|    0.170563|
|        3470|  5.9792e+01|  5.9792e+01|   -8.709454|  3.6579e-05|    0.170520|
|        3480|  5.9792e+01|  5.9792e+01|   -8.717512|  3.5289e-05|    0.170479|
|        3490|  5.9792e+01|  5.9792e+01|   -8.725674|  3.4024e-05|    0.170439|
|        3500|  5.9792e+01|  5.9792e+01|   -8.733910|  3.2781e-05|    0.170402|
|        3510|  5.9792e+01|  5.9792e+01|   -8.742193|  3.2734e-05|    0.170366|
|        3520|  5.9792e+01|  5.9792e+01|   -8.750448|  3.2508e-05|    0.170332|
|        3530|  5.9792e+01|  5.9792e+01|   -8.758579|  3.2305e-05|    0.170299|
|        3540|  5.9792e+01|  5.9792e+01|   -8.766516|  3.1155e-05|    0.170268|
|        3550|  5.9792e+01|  5.9792e+01|   -8.774219|  3.0029e-05|    0.170238|
|        3560|  5.9792e+01|  5.9792e+01|   -8.781647|  2.8906e-05|    0.170210|
|        3570|  5.9792e+01|  5.9792e+01|   -8.788750|  2.7795e-05|    0.170183|
|        3580|  5.9792e+01|  5.9792e+01|   -8.795470|  2.6711e-05|    0.170157|
|        3590|  5.9792e+01|  5.9792e+01|   -8.801770|  2.5667e-05|    0.170133|
|        3600|  5.9792e+01|  5.9792e+01|   -8.807646|  2.4655e-05|    0.170110|
+-----------------------------------------------------------------------+
|        File Writing Summary       |              Filename             |
+-----------------------------------------------------------------------+
|SU2 binary restart                 |restart_flow_G9.dat                |
|Paraview                           |flow_G9.vtu                        |
|Paraview surface                   |surface_flow_G9.vtu                |
+-----------------------------------------------------------------------+
+-----------------------------------------------------------------------------+
|  Inner_Iter|     Min CFL|     Max CFL|      rms[P]|  Cauchy[CD]|          CD|
+-----------------------------------------------------------------------------+
|        3610|  5.9792e+01|  5.9792e+01|   -8.813128|  2.3660e-05|    0.170089|
|        3620|  5.9792e+01|  5.9792e+01|   -8.818276|  2.2677e-05|    0.170068|
|        3630|  5.9792e+01|  5.9792e+01|   -8.823176|  2.1711e-05|    0.170049|
|        3640|  5.9792e+01|  5.9792e+01|   -8.827928|  2.0764e-05|    0.170031|
|        3650|  5.9792e+01|  5.9792e+01|   -8.832615|  1.9835e-05|    0.170014|
|        3660|  5.9792e+01|  5.9792e+01|   -8.837297|  1.8931e-05|    0.169998|
|        3670|  5.9792e+01|  5.9792e+01|   -8.842017|  1.8055e-05|    0.169983|
|        3680|  5.9792e+01|  5.9792e+01|   -8.846807|  1.7208e-05|    0.169969|
|        3690|  5.9792e+01|  5.9792e+01|   -8.851694|  1.6385e-05|    0.169956|
|        3700|  5.9792e+01|  5.9792e+01|   -8.856692|  1.5583e-05|    0.169944|
|        3710|  5.9792e+01|  5.9792e+01|   -8.861803|  1.4802e-05|    0.169933|
|        3720|  5.9792e+01|  5.9792e+01|   -8.867013|  1.4045e-05|    0.169922|
|        3730|  5.9792e+01|  5.9792e+01|   -8.872296|  1.3310e-05|    0.169912|
|        3740|  5.9792e+01|  5.9792e+01|   -8.877610|  1.2599e-05|    0.169903|
|        3750|  5.9792e+01|  5.9792e+01|   -8.882907|  1.1912e-05|    0.169895|
|        3760|  5.9792e+01|  5.9792e+01|   -8.888142|  1.1247e-05|    0.169888|
|        3770|  5.9792e+01|  5.9792e+01|   -8.893278|  1.0604e-05|    0.169881|
|        3780|  5.9792e+01|  5.9792e+01|   -8.898289|  9.9836e-06|    0.169874|
|        3790|  5.9792e+01|  5.9792e+01|   -8.903155|  9.3847e-06|    0.169869|
|        3800|  5.9792e+01|  5.9792e+01|   -8.907856|  8.8068e-06|    0.169863|
+-----------------------------------------------------------------------+
|        File Writing Summary       |              Filename             |
+-----------------------------------------------------------------------+
|SU2 binary restart                 |restart_flow_G9.dat                |
|Paraview                           |flow_G9.vtu                        |
|Paraview surface                   |surface_flow_G9.vtu                |
+-----------------------------------------------------------------------+
+-----------------------------------------------------------------------------+
|  Inner_Iter|     Min CFL|     Max CFL|      rms[P]|  Cauchy[CD]|          CD|
+-----------------------------------------------------------------------------+
|        3810|  5.9792e+01|  5.9792e+01|   -8.912374|  8.2494e-06|    0.169859|
|        3820|  5.9792e+01|  5.9792e+01|   -8.916704|  7.7123e-06|    0.169855|
|        3830|  5.9792e+01|  5.9792e+01|   -8.920851|  7.1950e-06|    0.169851|
|        3840|  5.9792e+01|  5.9792e+01|   -8.924836|  6.6965e-06|    0.169848|
|        3850|  5.9792e+01|  5.9792e+01|   -8.928686|  6.2159e-06|    0.169846|
|        3860|  5.9792e+01|  5.9792e+01|   -8.932432|  5.7529e-06|    0.169844|
|        3870|  5.9792e+01|  5.9792e+01|   -8.936108|  5.3071e-06|    0.169843|
|        3880|  5.9792e+01|  5.9792e+01|   -8.939739|  4.8777e-06|    0.169842|
|        3890|  5.9792e+01|  5.9792e+01|   -8.943349|  4.4638e-06|    0.169841|
|        3900|  5.9792e+01|  5.9792e+01|   -8.946956|  4.0675e-06|    0.169841|
|        3910|  5.9792e+01|  5.9792e+01|   -8.950576|  3.7042e-06|    0.169842|
|        3920|  5.9792e+01|  5.9792e+01|   -8.954224|  3.3748e-06|    0.169843|
|        3930|  1.4878e+01|  1.4878e+01|   -8.957606|  3.0672e-06|    0.169844|
|        3940|  7.6768e+00|  7.6768e+00|   -8.959147|  2.7806e-06|    0.169844|
|        3950|  4.7533e+01|  4.7533e+01|   -8.960897|  2.5050e-06|    0.169845|
|        3960|  2.4526e+01|  2.4526e+01|   -8.962598|  2.2524e-06|    0.169845|
|        3970|  6.1028e+01|  6.1028e+01|   -8.964577|  2.0416e-06|    0.169847|
|        3980|  6.1028e+01|  6.1028e+01|   -8.968428|  1.8815e-06|    0.169850|
|        3990|  6.1028e+01|  6.1028e+01|   -8.972369|  1.7441e-06|    0.169853|
|        4000|  6.1028e+01|  6.1028e+01|   -8.976249|  1.6252e-06|    0.169856|
+-----------------------------------------------------------------------+
|        File Writing Summary       |              Filename             |
+-----------------------------------------------------------------------+
|SU2 binary restart                 |restart_flow_G9.dat                |
|Paraview                           |flow_G9.vtu                        |
|Paraview surface                   |surface_flow_G9.vtu                |
+-----------------------------------------------------------------------+
+-----------------------------------------------------------------------------+
|  Inner_Iter|     Min CFL|     Max CFL|      rms[P]|  Cauchy[CD]|          CD|
+-----------------------------------------------------------------------------+
|        4010|  6.1028e+01|  6.1028e+01|   -8.980117|  1.5322e-06|    0.169860|
|        4020|  6.1028e+01|  6.1028e+01|   -8.984001|  1.4712e-06|    0.169864|
|        4030|  6.1028e+01|  6.1028e+01|   -8.987983|  1.4377e-06|    0.169869|
|        4040|  6.1028e+01|  6.1028e+01|   -8.991989|  1.4246e-06|    0.169874|
|        4050|  6.1028e+01|  6.1028e+01|   -8.995848|  1.4280e-06|    0.169880|
|        4060|  6.1028e+01|  6.1028e+01|   -8.999518|  1.4488e-06|    0.169885|
|        4070|  6.1028e+01|  6.1028e+01|   -9.003030|  1.4893e-06|    0.169891|
|        4080|  6.1028e+01|  6.1028e+01|   -9.006424|  1.5494e-06|    0.169897|
|        4090|  6.1028e+01|  6.1028e+01|   -9.009712|  1.6285e-06|    0.169903|
|        4100|  6.1028e+01|  6.1028e+01|   -9.012873|  1.7265e-06|    0.169910|
|        4110|  6.1028e+01|  6.1028e+01|   -9.015916|  1.8440e-06|    0.169917|
|        4120|  6.1028e+01|  6.1028e+01|   -9.018882|  1.9806e-06|    0.169924|
|        4130|  6.1028e+01|  6.1028e+01|   -9.021808|  2.1350e-06|    0.169931|
|        4140|  6.1028e+01|  6.1028e+01|   -9.024704|  2.3061e-06|    0.169939|
|        4150|  1.0546e+01|  1.0546e+01|   -9.027529|  2.4611e-06|    0.169946|
|        4160|  6.5296e+01|  6.5296e+01|   -9.028801|  2.5375e-06|    0.169950|
|        4170|  3.3691e+01|  3.3691e+01|   -9.029998|  2.5764e-06|    0.169952|
|        4180|  1.7384e+01|  1.7384e+01|   -9.031394|  2.6454e-06|    0.169956|
|        4190|  6.2290e+01|  6.2290e+01|   -9.032789|  2.7522e-06|    0.169961|
|        4200|  6.2290e+01|  6.2290e+01|   -9.035659|  2.9472e-06|    0.169970|
+-----------------------------------------------------------------------+
|        File Writing Summary       |              Filename             |
+-----------------------------------------------------------------------+
|SU2 binary restart                 |restart_flow_G9.dat                |
|Paraview                           |flow_G9.vtu                        |
|Paraview surface                   |surface_flow_G9.vtu                |
+-----------------------------------------------------------------------+
+-----------------------------------------------------------------------------+
|  Inner_Iter|     Min CFL|     Max CFL|      rms[P]|  Cauchy[CD]|          CD|
+-----------------------------------------------------------------------------+
|        4210|  6.2290e+01|  6.2290e+01|   -9.038621|  3.1449e-06|    0.169979|
|        4220|  6.2290e+01|  6.2290e+01|   -9.041500|  3.3170e-06|    0.169988|
|        4230|  6.2290e+01|  6.2290e+01|   -9.044292|  3.4593e-06|    0.169997|
|        4240|  6.2290e+01|  6.2290e+01|   -9.047046|  3.6046e-06|    0.170006|
|        4250|  6.2290e+01|  6.2290e+01|   -9.049935|  3.7546e-06|    0.170016|
|        4260|  6.2290e+01|  6.2290e+01|   -9.052923|  3.8968e-06|    0.170025|
|        4270|  6.2290e+01|  6.2290e+01|   -9.055850|  4.0219e-06|    0.170035|
|        4280|  6.2290e+01|  6.2290e+01|   -9.058653|  4.1345e-06|    0.170045|
|        4290|  7.4748e+00|  7.4748e+00|   -9.061361|  4.2477e-06|    0.170055|
|        4300|  4.6282e+01|  4.6282e+01|   -9.062555|  4.1974e-06|    0.170058|
|        4310|  2.3880e+01|  2.3880e+01|   -9.063761|  4.1632e-06|    0.170062|
|        4320|  1.2322e+01|  1.2322e+01|   -9.065150|  4.1485e-06|    0.170067|
|        4330|  6.3578e+01|  6.3578e+01|   -9.066263|  4.1241e-06|    0.170072|
|        4340|  6.3578e+01|  6.3578e+01|   -9.068700|  4.2160e-06|    0.170082|
|        4350|  6.3578e+01|  6.3578e+01|   -9.071289|  4.3110e-06|    0.170093|
|        4360|  6.3578e+01|  6.3578e+01|   -9.073848|  4.3955e-06|    0.170104|
|        4370|  6.3578e+01|  6.3578e+01|   -9.076364|  4.4727e-06|    0.170114|
|        4380|  6.3578e+01|  6.3578e+01|   -9.078886|  4.5488e-06|    0.170125|
|        4390|  6.3578e+01|  6.3578e+01|   -9.081558|  4.6240e-06|    0.170136|
|        4400|  6.3578e+01|  6.3578e+01|   -9.084382|  4.7238e-06|    0.170147|
+-----------------------------------------------------------------------+
|        File Writing Summary       |              Filename             |
+-----------------------------------------------------------------------+
|SU2 binary restart                 |restart_flow_G9.dat                |
|Paraview                           |flow_G9.vtu                        |
|Paraview surface                   |surface_flow_G9.vtu                |
+-----------------------------------------------------------------------+
+-----------------------------------------------------------------------------+
|  Inner_Iter|     Min CFL|     Max CFL|      rms[P]|  Cauchy[CD]|          CD|
+-----------------------------------------------------------------------------+
|        4410|  6.3578e+01|  6.3578e+01|   -9.087224|  4.8921e-06|    0.170158|
|        4420|  2.7337e+01|  2.7337e+01|   -9.088817|  4.9528e-06|    0.170163|
|        4430|  1.4105e+01|  1.4105e+01|   -9.090250|  4.9871e-06|    0.170168|
|        4440|  7.2781e+00|  7.2781e+00|   -9.091553|  5.0021e-06|    0.170174|
|        4450|  4.5064e+01|  4.5064e+01|   -9.092560|  4.8700e-06|    0.170177|
|        4460|  6.4892e+01|  6.4892e+01|   -9.094931|  4.9042e-06|    0.170188|
|        4470|  6.4892e+01|  6.4892e+01|   -9.097693|  4.9648e-06|    0.170199|
|        4480|  6.4892e+01|  6.4892e+01|   -9.100474|  5.0200e-06|    0.170210|
|        4490|  6.4892e+01|  6.4892e+01|   -9.103247|  5.0651e-06|    0.170222|
|        4500|  6.4892e+01|  6.4892e+01|   -9.106013|  5.1074e-06|    0.170233|
|        4510|  6.4892e+01|  6.4892e+01|   -9.108885|  5.1519e-06|    0.170245|
|        4520|  6.4892e+01|  6.4892e+01|   -9.111910|  5.1981e-06|    0.170256|
|        4530|  6.4892e+01|  6.4892e+01|   -9.114982|  5.2431e-06|    0.170268|
|        4540|  6.4892e+01|  6.4892e+01|   -9.118002|  5.2795e-06|    0.170279|
|        4550|  6.4892e+01|  6.4892e+01|   -9.120953|  5.4763e-06|    0.170291|
|        4560|  6.4892e+01|  6.4892e+01|   -9.123851|  5.6535e-06|    0.170303|
|        4570|  6.4892e+01|  6.4892e+01|   -9.126688|  5.8048e-06|    0.170314|
|        4580|  6.4892e+01|  6.4892e+01|   -9.129451|  5.9588e-06|    0.170326|
|        4590|  6.4892e+01|  6.4892e+01|   -9.132149|  5.9908e-06|    0.170337|
|        4600|  6.4892e+01|  6.4892e+01|   -9.134799|  6.0138e-06|    0.170349|
+-----------------------------------------------------------------------+
|        File Writing Summary       |              Filename             |
+-----------------------------------------------------------------------+
|SU2 binary restart                 |restart_flow_G9.dat                |
|Paraview                           |flow_G9.vtu                        |
|Paraview surface                   |surface_flow_G9.vtu                |
+-----------------------------------------------------------------------+
+-----------------------------------------------------------------------------+
|  Inner_Iter|     Min CFL|     Max CFL|      rms[P]|  Cauchy[CD]|          CD|
+-----------------------------------------------------------------------------+
|        4610|  6.4892e+01|  6.4892e+01|   -9.137418|  6.0402e-06|    0.170361|
|        4620|  6.4892e+01|  6.4892e+01|   -9.140019|  6.0668e-06|    0.170372|
|        4630|  6.4892e+01|  6.4892e+01|   -9.142615|  6.0882e-06|    0.170384|
|        4640|  6.4892e+01|  6.4892e+01|   -9.145215|  6.1044e-06|    0.170396|
|        4650|  6.4892e+01|  6.4892e+01|   -9.147807|  6.1193e-06|    0.170407|
|        4660|  6.4892e+01|  6.4892e+01|   -9.150370|  6.1355e-06|    0.170419|
|        4670|  6.4892e+01|  6.4892e+01|   -9.152891|  6.2858e-06|    0.170430|
|        4680|  6.4892e+01|  6.4892e+01|   -9.155376|  6.4324e-06|    0.170442|
|        4690|  6.4892e+01|  6.4892e+01|   -9.157835|  6.5604e-06|    0.170453|
|        4700|  6.4892e+01|  6.4892e+01|   -9.160277|  6.7563e-06|    0.170465|
|        4710|  6.4892e+01|  6.4892e+01|   -9.162706|  6.7795e-06|    0.170476|
|        4720|  6.4892e+01|  6.4892e+01|   -9.165129|  6.7783e-06|    0.170488|
|        4730|  6.4892e+01|  6.4892e+01|   -9.167555|  6.7792e-06|    0.170499|
|        4740|  6.4892e+01|  6.4892e+01|   -9.169988|  6.7806e-06|    0.170510|
|        4750|  6.4892e+01|  6.4892e+01|   -9.172427|  6.7775e-06|    0.170522|
|        4760|  6.4892e+01|  6.4892e+01|   -9.174870|  6.7691e-06|    0.170533|
|        4770|  6.4892e+01|  6.4892e+01|   -9.177315|  6.7584e-06|    0.170544|
|        4780|  6.4892e+01|  6.4892e+01|   -9.179766|  6.7480e-06|    0.170555|
|        4790|  6.4892e+01|  6.4892e+01|   -9.182224|  6.7386e-06|    0.170567|
|        4800|  6.4892e+01|  6.4892e+01|   -9.184689|  6.7286e-06|    0.170578|
+-----------------------------------------------------------------------+
|        File Writing Summary       |              Filename             |
+-----------------------------------------------------------------------+
|SU2 binary restart                 |restart_flow_G9.dat                |
|Paraview                           |flow_G9.vtu                        |
|Paraview surface                   |surface_flow_G9.vtu                |
+-----------------------------------------------------------------------+
+-----------------------------------------------------------------------------+
|  Inner_Iter|     Min CFL|     Max CFL|      rms[P]|  Cauchy[CD]|          CD|
+-----------------------------------------------------------------------------+
|        4810|  6.4892e+01|  6.4892e+01|   -9.187163|  6.7170e-06|    0.170589|
|        4820|  6.4892e+01|  6.4892e+01|   -9.189646|  6.7043e-06|    0.170600|
|        4830|  6.4892e+01|  6.4892e+01|   -9.192137|  6.6903e-06|    0.170611|
|        4840|  6.4892e+01|  6.4892e+01|   -9.194638|  6.6745e-06|    0.170622|
|        4850|  6.4892e+01|  6.4892e+01|   -9.197146|  6.6570e-06|    0.170633|
|        4860|  6.4892e+01|  6.4892e+01|   -9.199661|  6.6381e-06|    0.170644|
|        4870|  6.4892e+01|  6.4892e+01|   -9.202181|  6.6181e-06|    0.170654|
|        4880|  6.4892e+01|  6.4892e+01|   -9.204704|  6.5975e-06|    0.170665|
|        4890|  6.4892e+01|  6.4892e+01|   -9.207232|  6.5767e-06|    0.170676|
|        4900|  6.4892e+01|  6.4892e+01|   -9.209763|  6.5557e-06|    0.170687|
|        4910|  6.4892e+01|  6.4892e+01|   -9.212300|  6.5342e-06|    0.170697|
|        4920|  6.4892e+01|  6.4892e+01|   -9.214841|  6.5124e-06|    0.170708|
|        4930|  6.4892e+01|  6.4892e+01|   -9.217386|  6.4904e-06|    0.170719|
|        4940|  6.4892e+01|  6.4892e+01|   -9.219933|  6.4681e-06|    0.170729|
|        4950|  6.4892e+01|  6.4892e+01|   -9.222479|  6.4456e-06|    0.170740|
|        4960|  6.4892e+01|  6.4892e+01|   -9.225020|  6.4229e-06|    0.170750|
|        4970|  6.4892e+01|  6.4892e+01|   -9.227554|  6.4001e-06|    0.170761|
|        4980|  6.4892e+01|  6.4892e+01|   -9.230079|  6.3772e-06|    0.170771|
|        4990|  6.4892e+01|  6.4892e+01|   -9.232593|  6.3544e-06|    0.170781|
|        5000|  6.4892e+01|  6.4892e+01|   -9.235098|  6.3316e-06|    0.170792|
+-----------------------------------------------------------------------+
|        File Writing Summary       |              Filename             |
+-----------------------------------------------------------------------+
|SU2 binary restart                 |restart_flow_G9.dat                |
|Paraview                           |flow_G9.vtu                        |
|Paraview surface                   |surface_flow_G9.vtu                |
+-----------------------------------------------------------------------+
+-----------------------------------------------------------------------------+
|  Inner_Iter|     Min CFL|     Max CFL|      rms[P]|  Cauchy[CD]|          CD|
+-----------------------------------------------------------------------------+
|        5010|  6.4892e+01|  6.4892e+01|   -9.237592|  6.3086e-06|    0.170802|
|        5020|  6.4892e+01|  6.4892e+01|   -9.240077|  6.2854e-06|    0.170812|
|        5030|  6.4892e+01|  6.4892e+01|   -9.242554|  6.2622e-06|    0.170823|
|        5040|  6.4892e+01|  6.4892e+01|   -9.245023|  6.2387e-06|    0.170833|
|        5050|  6.4892e+01|  6.4892e+01|   -9.247484|  6.2151e-06|    0.170843|
|        5060|  6.4892e+01|  6.4892e+01|   -9.249939|  6.1913e-06|    0.170853|
|        5070|  6.4892e+01|  6.4892e+01|   -9.252387|  6.1674e-06|    0.170863|
|        5080|  6.4892e+01|  6.4892e+01|   -9.254829|  6.1435e-06|    0.170873|
|        5090|  6.4892e+01|  6.4892e+01|   -9.257264|  6.1195e-06|    0.170883|
|        5100|  6.4892e+01|  6.4892e+01|   -9.259694|  6.0955e-06|    0.170893|
|        5110|  6.4892e+01|  6.4892e+01|   -9.262118|  6.0714e-06|    0.170903|
|        5120|  6.4892e+01|  6.4892e+01|   -9.264536|  6.0471e-06|    0.170913|
|        5130|  6.4892e+01|  6.4892e+01|   -9.266950|  6.0225e-06|    0.170922|
|        5140|  6.4892e+01|  6.4892e+01|   -9.269360|  5.9977e-06|    0.170932|
|        5150|  6.4892e+01|  6.4892e+01|   -9.271767|  5.9725e-06|    0.170942|
|        5160|  6.4892e+01|  6.4892e+01|   -9.274172|  5.9470e-06|    0.170951|
|        5170|  6.4892e+01|  6.4892e+01|   -9.276575|  5.9213e-06|    0.170961|
|        5180|  6.4892e+01|  6.4892e+01|   -9.278978|  5.8953e-06|    0.170970|
|        5190|  6.4892e+01|  6.4892e+01|   -9.281382|  5.8692e-06|    0.170980|
|        5200|  6.4892e+01|  6.4892e+01|   -9.283786|  5.8429e-06|    0.170989|
+-----------------------------------------------------------------------+
|        File Writing Summary       |              Filename             |
+-----------------------------------------------------------------------+
|SU2 binary restart                 |restart_flow_G9.dat                |
|Paraview                           |flow_G9.vtu                        |
|Paraview surface                   |surface_flow_G9.vtu                |
+-----------------------------------------------------------------------+
+-----------------------------------------------------------------------------+
|  Inner_Iter|     Min CFL|     Max CFL|      rms[P]|  Cauchy[CD]|          CD|
+-----------------------------------------------------------------------------+
|        5210|  6.4892e+01|  6.4892e+01|   -9.286192|  5.8165e-06|    0.170999|
|        5220|  6.4892e+01|  6.4892e+01|   -9.288600|  5.7899e-06|    0.171008|
|        5230|  6.4892e+01|  6.4892e+01|   -9.291011|  5.7633e-06|    0.171017|
|        5240|  6.4892e+01|  6.4892e+01|   -9.293425|  5.7365e-06|    0.171027|
|        5250|  6.4892e+01|  6.4892e+01|   -9.295841|  5.7096e-06|    0.171036|
|        5260|  6.4892e+01|  6.4892e+01|   -9.298261|  5.6827e-06|    0.171045|
|        5270|  6.4892e+01|  6.4892e+01|   -9.300685|  5.6556e-06|    0.171054|
|        5280|  6.4892e+01|  6.4892e+01|   -9.303111|  5.6286e-06|    0.171063|
|        5290|  6.4892e+01|  6.4892e+01|   -9.305542|  5.6014e-06|    0.171072|
|        5300|  6.4892e+01|  6.4892e+01|   -9.307976|  5.5742e-06|    0.171081|
|        5310|  6.4892e+01|  6.4892e+01|   -9.310413|  5.5471e-06|    0.171090|
|        5320|  6.4892e+01|  6.4892e+01|   -9.312854|  5.5200e-06|    0.171099|
|        5330|  6.4892e+01|  6.4892e+01|   -9.315298|  5.4929e-06|    0.171108|
|        5340|  6.4892e+01|  6.4892e+01|   -9.317744|  5.4659e-06|    0.171117|
|        5350|  6.4892e+01|  6.4892e+01|   -9.320192|  5.4391e-06|    0.171125|
|        5360|  6.4892e+01|  6.4892e+01|   -9.322641|  5.4123e-06|    0.171134|
|        5370|  6.4892e+01|  6.4892e+01|   -9.325090|  5.3857e-06|    0.171143|
|        5380|  6.4892e+01|  6.4892e+01|   -9.327538|  5.3593e-06|    0.171151|
|        5390|  6.4892e+01|  6.4892e+01|   -9.329986|  5.3329e-06|    0.171160|
|        5400|  6.4892e+01|  6.4892e+01|   -9.332431|  5.3067e-06|    0.171169|
+-----------------------------------------------------------------------+
|        File Writing Summary       |              Filename             |
+-----------------------------------------------------------------------+
|SU2 binary restart                 |restart_flow_G9.dat                |
|Paraview                           |flow_G9.vtu                        |
|Paraview surface                   |surface_flow_G9.vtu                |
+-----------------------------------------------------------------------+
+-----------------------------------------------------------------------------+
|  Inner_Iter|     Min CFL|     Max CFL|      rms[P]|  Cauchy[CD]|          CD|
+-----------------------------------------------------------------------------+
|        5410|  6.4892e+01|  6.4892e+01|   -9.334875|  5.2807e-06|    0.171177|
|        5420|  6.4892e+01|  6.4892e+01|   -9.337317|  5.2548e-06|    0.171186|
|        5430|  6.4892e+01|  6.4892e+01|   -9.339756|  5.2290e-06|    0.171194|
|        5440|  6.4892e+01|  6.4892e+01|   -9.342192|  5.2034e-06|    0.171202|
|        5450|  6.4892e+01|  6.4892e+01|   -9.344625|  5.1779e-06|    0.171211|
|        5460|  6.4892e+01|  6.4892e+01|   -9.347056|  5.1526e-06|    0.171219|
|        5470|  6.4892e+01|  6.4892e+01|   -9.349483|  5.1274e-06|    0.171227|
|        5480|  6.4892e+01|  6.4892e+01|   -9.351908|  5.1024e-06|    0.171236|
|        5490|  6.4892e+01|  6.4892e+01|   -9.354331|  5.0775e-06|    0.171244|
|        5500|  6.4892e+01|  6.4892e+01|   -9.356751|  5.0528e-06|    0.171252|
|        5510|  6.4892e+01|  6.4892e+01|   -9.359170|  5.0282e-06|    0.171260|
|        5520|  6.4892e+01|  6.4892e+01|   -9.361588|  5.0038e-06|    0.171268|
|        5530|  6.4892e+01|  6.4892e+01|   -9.364007|  4.9795e-06|    0.171276|
|        5540|  6.4892e+01|  6.4892e+01|   -9.366425|  4.9553e-06|    0.171284|
|        5550|  6.4892e+01|  6.4892e+01|   -9.368844|  4.9312e-06|    0.171292|
|        5560|  6.4892e+01|  6.4892e+01|   -9.371264|  4.9072e-06|    0.171300|
|        5570|  6.4892e+01|  6.4892e+01|   -9.373686|  4.8834e-06|    0.171308|
|        5580|  6.4892e+01|  6.4892e+01|   -9.376110|  4.8596e-06|    0.171316|
|        5590|  6.4892e+01|  6.4892e+01|   -9.378536|  4.8359e-06|    0.171324|
|        5600|  6.4892e+01|  6.4892e+01|   -9.380965|  4.8124e-06|    0.171331|
+-----------------------------------------------------------------------+
|        File Writing Summary       |              Filename             |
+-----------------------------------------------------------------------+
|SU2 binary restart                 |restart_flow_G9.dat                |
|Paraview                           |flow_G9.vtu                        |
|Paraview surface                   |surface_flow_G9.vtu                |
+-----------------------------------------------------------------------+
+-----------------------------------------------------------------------------+
|  Inner_Iter|     Min CFL|     Max CFL|      rms[P]|  Cauchy[CD]|          CD|
+-----------------------------------------------------------------------------+
|        5610|  6.4892e+01|  6.4892e+01|   -9.383396|  4.7889e-06|    0.171339|
|        5620|  6.4892e+01|  6.4892e+01|   -9.385830|  4.7655e-06|    0.171347|
|        5630|  6.4892e+01|  6.4892e+01|   -9.388267|  4.7423e-06|    0.171354|
|        5640|  6.4892e+01|  6.4892e+01|   -9.390707|  4.7191e-06|    0.171362|
|        5650|  6.4892e+01|  6.4892e+01|   -9.393150|  4.6961e-06|    0.171370|
|        5660|  6.4892e+01|  6.4892e+01|   -9.395596|  4.6732e-06|    0.171377|
|        5670|  6.4892e+01|  6.4892e+01|   -9.398044|  4.6504e-06|    0.171385|
|        5680|  6.4892e+01|  6.4892e+01|   -9.400495|  4.6278e-06|    0.171392|
|        5690|  6.4892e+01|  6.4892e+01|   -9.402949|  4.6052e-06|    0.171400|
|        5700|  6.4892e+01|  6.4892e+01|   -9.405406|  4.5828e-06|    0.171407|
|        5710|  6.4892e+01|  6.4892e+01|   -9.407866|  4.5605e-06|    0.171414|
|        5720|  6.4892e+01|  6.4892e+01|   -9.410329|  4.5383e-06|    0.171422|
|        5730|  6.4892e+01|  6.4892e+01|   -9.412795|  4.5163e-06|    0.171429|
|        5740|  6.4892e+01|  6.4892e+01|   -9.415263|  4.4943e-06|    0.171436|
|        5750|  6.4892e+01|  6.4892e+01|   -9.417734|  4.4725e-06|    0.171444|
|        5760|  6.4892e+01|  6.4892e+01|   -9.420206|  4.4509e-06|    0.171451|
[...]
|        6800|  6.4892e+01|  6.4892e+01|   -9.691815|  2.6850e-06|    0.172040|
+-----------------------------------------------------------------------+
|        File Writing Summary       |              Filename             |
+-----------------------------------------------------------------------+
|SU2 binary restart                 |restart_flow_G9.dat                |
|Paraview                           |flow_G9.vtu                        |
|Paraview surface                   |surface_flow_G9.vtu                |
+-----------------------------------------------------------------------+
+-----------------------------------------------------------------------------+
|  Inner_Iter|     Min CFL|     Max CFL|      rms[P]|  Cauchy[CD]|          CD|
+-----------------------------------------------------------------------------+
|        6810|  6.4892e+01|  6.4892e+01|   -9.694579|  2.6708e-06|    0.172044|
|        6820|  6.4892e+01|  6.4892e+01|   -9.697346|  2.6567e-06|    0.172048|
|        6830|  6.4892e+01|  6.4892e+01|   -9.700116|  2.6425e-06|    0.172053|
|        6840|  6.4892e+01|  6.4892e+01|   -9.702888|  2.6285e-06|    0.172057|
|        6850|  6.4892e+01|  6.4892e+01|   -9.705662|  2.6144e-06|    0.172061|
|        6860|  6.4892e+01|  6.4892e+01|   -9.708438|  2.6004e-06|    0.172065|
|        6870|  6.4892e+01|  6.4892e+01|   -9.711216|  2.5864e-06|    0.172069|
|        6880|  6.4892e+01|  6.4892e+01|   -9.713997|  2.5725e-06|    0.172074|
|        6890|  6.4892e+01|  6.4892e+01|   -9.716779|  2.5585e-06|    0.172078|
|        6900|  6.4892e+01|  6.4892e+01|   -9.719563|  2.5446e-06|    0.172082|
|        6910|  6.4892e+01|  6.4892e+01|   -9.722350|  2.5308e-06|    0.172086|
|        6920|  6.4892e+01|  6.4892e+01|   -9.725139|  2.5170e-06|    0.172090|
|        6930|  6.4892e+01|  6.4892e+01|   -9.727930|  2.5032e-06|    0.172094|
|        6940|  6.4892e+01|  6.4892e+01|   -9.730725|  2.4894e-06|    0.172098|
|        6950|  6.4892e+01|  6.4892e+01|   -9.733521|  2.4757e-06|    0.172102|
|        6960|  6.4892e+01|  6.4892e+01|   -9.736320|  2.4620e-06|    0.172106|
|        6970|  6.4892e+01|  6.4892e+01|   -9.739122|  2.4483e-06|    0.172110|
|        6980|  6.4892e+01|  6.4892e+01|   -9.741924|  2.4346e-06|    0.172114|
|        6990|  6.4892e+01|  6.4892e+01|   -9.744729|  2.4210e-06|    0.172118|
|        7000|  6.4892e+01|  6.4892e+01|   -9.747535|  2.4075e-06|    0.172121|
+-----------------------------------------------------------------------+
|        File Writing Summary       |              Filename             |
+-----------------------------------------------------------------------+
|SU2 binary restart                 |restart_flow_G9.dat                |
|Paraview                           |flow_G9.vtu                        |
|Paraview surface                   |surface_flow_G9.vtu                |
+-----------------------------------------------------------------------+
+-----------------------------------------------------------------------------+
|  Inner_Iter|     Min CFL|     Max CFL|      rms[P]|  Cauchy[CD]|          CD|
+-----------------------------------------------------------------------------+
|        7010|  6.4892e+01|  6.4892e+01|   -9.750343|  2.3939e-06|    0.172125|
|        7020|  6.4892e+01|  6.4892e+01|   -9.753153|  2.3804e-06|    0.172129|
|        7030|  6.4892e+01|  6.4892e+01|   -9.755965|  2.3669e-06|    0.172133|
|        7040|  6.4892e+01|  6.4892e+01|   -9.758779|  2.3535e-06|    0.172137|
|        7050|  6.4892e+01|  6.4892e+01|   -9.761595|  2.3401e-06|    0.172140|
|        7060|  6.4892e+01|  6.4892e+01|   -9.764412|  2.3267e-06|    0.172144|
|        7070|  6.4892e+01|  6.4892e+01|   -9.767232|  2.3133e-06|    0.172148|
|        7080|  6.4892e+01|  6.4892e+01|   -9.770054|  2.3000e-06|    0.172152|
|        7090|  6.4892e+01|  6.4892e+01|   -9.772877|  2.2867e-06|    0.172155|
|        7100|  6.4892e+01|  6.4892e+01|   -9.775701|  2.2735e-06|    0.172159|
|        7110|  6.4892e+01|  6.4892e+01|   -9.778526|  2.2602e-06|    0.172163|
|        7120|  6.4892e+01|  6.4892e+01|   -9.781353|  2.2470e-06|    0.172166|
|        7130|  6.4892e+01|  6.4892e+01|   -9.784181|  2.2339e-06|    0.172170|
|        7140|  6.4892e+01|  6.4892e+01|   -9.787010|  2.2208e-06|    0.172173|
|        7150|  6.4892e+01|  6.4892e+01|   -9.789840|  2.2077e-06|    0.172177|
|        7160|  6.4892e+01|  6.4892e+01|   -9.792672|  2.1946e-06|    0.172180|
|        7170|  6.4892e+01|  6.4892e+01|   -9.795505|  2.1816e-06|    0.172184|
|        7180|  6.4892e+01|  6.4892e+01|   -9.798339|  2.1686e-06|    0.172187|
|        7190|  6.4892e+01|  6.4892e+01|   -9.801174|  2.1556e-06|    0.172191|
|        7200|  6.4892e+01|  6.4892e+01|   -9.804010|  2.1426e-06|    0.172194|
+-----------------------------------------------------------------------+
|        File Writing Summary       |              Filename             |
+-----------------------------------------------------------------------+
|SU2 binary restart                 |restart_flow_G9.dat                |
|Paraview                           |flow_G9.vtu                        |
|Paraview surface                   |surface_flow_G9.vtu                |
+-----------------------------------------------------------------------+
+-----------------------------------------------------------------------------+
|  Inner_Iter|     Min CFL|     Max CFL|      rms[P]|  Cauchy[CD]|          CD|
+-----------------------------------------------------------------------------+
|        7210|  6.4892e+01|  6.4892e+01|   -9.806846|  2.1297e-06|    0.172198|
|        7220|  6.4892e+01|  6.4892e+01|   -9.809684|  2.1169e-06|    0.172201|
|        7230|  6.4892e+01|  6.4892e+01|   -9.812522|  2.1040e-06|    0.172204|
|        7240|  6.4892e+01|  6.4892e+01|   -9.815361|  2.0912e-06|    0.172208|
|        7250|  6.4892e+01|  6.4892e+01|   -9.818201|  2.0785e-06|    0.172211|
|        7260|  6.4892e+01|  6.4892e+01|   -9.821043|  2.0657e-06|    0.172214|
|        7270|  6.4892e+01|  6.4892e+01|   -9.823885|  2.0530e-06|    0.172218|
|        7280|  6.4892e+01|  6.4892e+01|   -9.826728|  2.0403e-06|    0.172221|
|        7290|  6.4892e+01|  6.4892e+01|   -9.829571|  2.0277e-06|    0.172224|
|        7300|  6.4892e+01|  6.4892e+01|   -9.832415|  2.0151e-06|    0.172227|
|        7310|  6.4892e+01|  6.4892e+01|   -9.835260|  2.0025e-06|    0.172230|
|        7320|  6.4892e+01|  6.4892e+01|   -9.838105|  1.9900e-06|    0.172234|
|        7330|  6.4892e+01|  6.4892e+01|   -9.840950|  1.9775e-06|    0.172237|
|        7340|  6.4892e+01|  6.4892e+01|   -9.843796|  1.9650e-06|    0.172240|
|        7350|  6.4892e+01|  6.4892e+01|   -9.846643|  1.9526e-06|    0.172243|
|        7360|  6.4892e+01|  6.4892e+01|   -9.849490|  1.9402e-06|    0.172246|
|        7370|  6.4892e+01|  6.4892e+01|   -9.852338|  1.9278e-06|    0.172249|
|        7380|  6.4892e+01|  6.4892e+01|   -9.855186|  1.9155e-06|    0.172252|
|        7390|  6.4892e+01|  6.4892e+01|   -9.858035|  1.9032e-06|    0.172255|
|        7400|  6.4892e+01|  6.4892e+01|   -9.860883|  1.8910e-06|    0.172258|
+-----------------------------------------------------------------------+
|        File Writing Summary       |              Filename             |
+-----------------------------------------------------------------------+
|SU2 binary restart                 |restart_flow_G9.dat                |
|Paraview                           |flow_G9.vtu                        |
|Paraview surface                   |surface_flow_G9.vtu                |
+-----------------------------------------------------------------------+
+-----------------------------------------------------------------------------+
|  Inner_Iter|     Min CFL|     Max CFL|      rms[P]|  Cauchy[CD]|          CD|
+-----------------------------------------------------------------------------+
|        7410|  6.4892e+01|  6.4892e+01|   -9.863733|  1.8788e-06|    0.172261|
|        7420|  6.4892e+01|  6.4892e+01|   -9.866582|  1.8666e-06|    0.172264|
|        7430|  6.4892e+01|  6.4892e+01|   -9.869431|  1.8545e-06|    0.172267|
|        7440|  6.4892e+01|  6.4892e+01|   -9.872280|  1.8424e-06|    0.172270|
|        7450|  6.4892e+01|  6.4892e+01|   -9.875129|  1.8303e-06|    0.172273|
|        7460|  6.4892e+01|  6.4892e+01|   -9.877977|  1.8183e-06|    0.172276|
|        7470|  6.4892e+01|  6.4892e+01|   -9.880825|  1.8063e-06|    0.172279|
|        7480|  6.4892e+01|  6.4892e+01|   -9.883672|  1.7944e-06|    0.172282|
|        7490|  6.4892e+01|  6.4892e+01|   -9.886519|  1.7825e-06|    0.172284|
|        7500|  6.4892e+01|  6.4892e+01|   -9.889366|  1.7707e-06|    0.172287|
|        7510|  6.4892e+01|  6.4892e+01|   -9.892211|  1.7588e-06|    0.172290|
|        7520|  6.4892e+01|  6.4892e+01|   -9.895056|  1.7471e-06|    0.172293|
|        7530|  6.4892e+01|  6.4892e+01|   -9.897899|  1.7354e-06|    0.172295|
|        7540|  6.4892e+01|  6.4892e+01|   -9.900742|  1.7237e-06|    0.172298|
|        7550|  6.4892e+01|  6.4892e+01|   -9.903584|  1.7120e-06|    0.172301|
|        7560|  6.4892e+01|  6.4892e+01|   -9.906425|  1.7004e-06|    0.172304|
|        7570|  6.4892e+01|  6.4892e+01|   -9.909266|  1.6889e-06|    0.172306|
|        7580|  6.4892e+01|  6.4892e+01|   -9.912105|  1.6774e-06|    0.172309|
|        7590|  6.4892e+01|  6.4892e+01|   -9.914944|  1.6659e-06|    0.172312|
|        7600|  6.4892e+01|  6.4892e+01|   -9.917782|  1.6545e-06|    0.172314|
+-----------------------------------------------------------------------+
|        File Writing Summary       |              Filename             |
+-----------------------------------------------------------------------+
|SU2 binary restart                 |restart_flow_G9.dat                |
|Paraview                           |flow_G9.vtu                        |
|Paraview surface                   |surface_flow_G9.vtu                |
+-----------------------------------------------------------------------+
+-----------------------------------------------------------------------------+
|  Inner_Iter|     Min CFL|     Max CFL|      rms[P]|  Cauchy[CD]|          CD|
+-----------------------------------------------------------------------------+
|        7610|  6.4892e+01|  6.4892e+01|   -9.920619|  1.6431e-06|    0.172317|
|        7620|  6.4892e+01|  6.4892e+01|   -9.923454|  1.6317e-06|    0.172319|
|        7630|  6.4892e+01|  6.4892e+01|   -9.926289|  1.6204e-06|    0.172322|
|        7640|  6.4892e+01|  6.4892e+01|   -9.929123|  1.6092e-06|    0.172325|
|        7650|  6.4892e+01|  6.4892e+01|   -9.931956|  1.5980e-06|    0.172327|
|        7660|  6.4892e+01|  6.4892e+01|   -9.934788|  1.5868e-06|    0.172330|
|        7670|  6.4892e+01|  6.4892e+01|   -9.937620|  1.5757e-06|    0.172332|
|        7680|  2.7902e+01|  2.7902e+01|   -9.939546|  1.5345e-06|    0.172333|
|        7690|  1.4397e+01|  1.4397e+01|   -9.941007|  1.4945e-06|    0.172334|
|        7700|  7.4286e+00|  7.4286e+00|   -9.942096|  1.4591e-06|    0.172336|
|        7710|  4.5996e+01|  4.5996e+01|   -9.943369|  1.4085e-06|    0.172337|
|        7720|  6.6234e+01|  6.6234e+01|   -9.945515|  1.3968e-06|    0.172339|
|        7730|  6.6234e+01|  6.6234e+01|   -9.948390|  1.3890e-06|    0.172341|
|        7740|  6.6234e+01|  6.6234e+01|   -9.951271|  1.3805e-06|    0.172344|
|        7750|  6.6234e+01|  6.6234e+01|   -9.954151|  1.3719e-06|    0.172346|
|        7760|  6.6234e+01|  6.6234e+01|   -9.957026|  1.3634e-06|    0.172349|
|        7770|  6.6234e+01|  6.6234e+01|   -9.959868|  1.3548e-06|    0.172351|
|        7780|  6.6234e+01|  6.6234e+01|   -9.962745|  1.3461e-06|    0.172353|
|        7790|  6.6234e+01|  6.6234e+01|   -9.965697|  1.3375e-06|    0.172356|
|        7800|  6.6234e+01|  6.6234e+01|   -9.968665|  1.3288e-06|    0.172358|
+-----------------------------------------------------------------------+
|        File Writing Summary       |              Filename             |
+-----------------------------------------------------------------------+
|SU2 binary restart                 |restart_flow_G9.dat                |
|Paraview                           |flow_G9.vtu                        |
|Paraview surface                   |surface_flow_G9.vtu                |
+-----------------------------------------------------------------------+
+-----------------------------------------------------------------------------+
|  Inner_Iter|     Min CFL|     Max CFL|      rms[P]|  Cauchy[CD]|          CD|
+-----------------------------------------------------------------------------+
|        7810|  6.6234e+01|  6.6234e+01|   -9.971587|  1.3201e-06|    0.172361|
|        7820|  6.6234e+01|  6.6234e+01|   -9.974456|  1.3116e-06|    0.172363|
|        7830|  6.6234e+01|  6.6234e+01|   -9.977296|  1.3030e-06|    0.172365|
|        7840|  6.6234e+01|  6.6234e+01|   -9.980127|  1.2945e-06|    0.172367|
|        7850|  6.6234e+01|  6.6234e+01|   -9.982959|  1.2859e-06|    0.172370|
|        7860|  6.6234e+01|  6.6234e+01|   -9.985791|  1.2775e-06|    0.172372|
|        7870|  6.6234e+01|  6.6234e+01|   -9.988621|  1.2692e-06|    0.172374|
|        7880|  6.6234e+01|  6.6234e+01|   -9.991449|  1.2609e-06|    0.172376|
|        7890|  6.6234e+01|  6.6234e+01|   -9.994278|  1.2525e-06|    0.172378|
|        7900|  6.6234e+01|  6.6234e+01|   -9.997111|  1.2442e-06|    0.172381|
|        7910|  6.6234e+01|  6.6234e+01|   -9.999948|  1.2358e-06|    0.172383|
|        7920|  6.6234e+01|  6.6234e+01|  -10.002791|  1.2276e-06|    0.172385|
|        7930|  6.6234e+01|  6.6234e+01|  -10.005636|  1.2496e-06|    0.172387|
|        7940|  6.6234e+01|  6.6234e+01|  -10.008480|  1.2704e-06|    0.172389|
|        7950|  6.6234e+01|  6.6234e+01|  -10.011319|  1.2867e-06|    0.172391|
|        7960|  6.6234e+01|  6.6234e+01|  -10.014153|  1.3182e-06|    0.172393|
|        7970|  6.6234e+01|  6.6234e+01|  -10.016984|  1.3109e-06|    0.172395|
|        7980|  6.6234e+01|  6.6234e+01|  -10.019812|  1.2998e-06|    0.172397|
|        7990|  6.6234e+01|  6.6234e+01|  -10.022637|  1.2894e-06|    0.172399|
|        8000|  6.6234e+01|  6.6234e+01|  -10.025459|  1.2793e-06|    0.172401|
+-----------------------------------------------------------------------+
|        File Writing Summary       |              Filename             |
+-----------------------------------------------------------------------+
|SU2 binary restart                 |restart_flow_G9.dat                |
|Paraview                           |flow_G9.vtu                        |
|Paraview surface                   |surface_flow_G9.vtu                |
+-----------------------------------------------------------------------+
+-----------------------------------------------------------------------------+
|  Inner_Iter|     Min CFL|     Max CFL|      rms[P]|  Cauchy[CD]|          CD|
+-----------------------------------------------------------------------------+
|        8010|  6.6234e+01|  6.6234e+01|  -10.028276|  1.2691e-06|    0.172403|
|        8020|  6.6234e+01|  6.6234e+01|  -10.031093|  1.2591e-06|    0.172405|
|        8030|  6.6234e+01|  6.6234e+01|  -10.033910|  1.2493e-06|    0.172407|
|        8040|  6.6234e+01|  6.6234e+01|  -10.036730|  1.2395e-06|    0.172409|
|        8050|  6.6234e+01|  6.6234e+01|  -10.039553|  1.2299e-06|    0.172411|
|        8060|  6.6234e+01|  6.6234e+01|  -10.042375|  1.2203e-06|    0.172413|
|        8070|  6.6234e+01|  6.6234e+01|  -10.045192|  1.2107e-06|    0.172415|
|        8080|  6.6234e+01|  6.6234e+01|  -10.048003|  1.2012e-06|    0.172417|
|        8090|  6.6234e+01|  6.6234e+01|  -10.050806|  1.1918e-06|    0.172419|
|        8100|  6.6234e+01|  6.6234e+01|  -10.053603|  1.1824e-06|    0.172421|
|        8110|  6.6234e+01|  6.6234e+01|  -10.056394|  1.1731e-06|    0.172422|
|        8120|  6.6234e+01|  6.6234e+01|  -10.059180|  1.1637e-06|    0.172424|
|        8130|  6.6234e+01|  6.6234e+01|  -10.061959|  1.1543e-06|    0.172426|
|        8140|  6.6234e+01|  6.6234e+01|  -10.064730|  1.1451e-06|    0.172428|
|        8150|  6.6234e+01|  6.6234e+01|  -10.067494|  1.1360e-06|    0.172430|
|        8160|  6.6234e+01|  6.6234e+01|  -10.070250|  1.1270e-06|    0.172431|
|        8170|  6.6234e+01|  6.6234e+01|  -10.073001|  1.1179e-06|    0.172433|
|        8180|  6.6234e+01|  6.6234e+01|  -10.075747|  1.1089e-06|    0.172435|
|        8190|  6.6234e+01|  6.6234e+01|  -10.078491|  1.0999e-06|    0.172437|
|        8200|  6.6234e+01|  6.6234e+01|  -10.081233|  1.0910e-06|    0.172438|
+-----------------------------------------------------------------------+
|        File Writing Summary       |              Filename             |
+-----------------------------------------------------------------------+
|SU2 binary restart                 |restart_flow_G9.dat                |
|Paraview                           |flow_G9.vtu                        |
|Paraview surface                   |surface_flow_G9.vtu                |
+-----------------------------------------------------------------------+
+-----------------------------------------------------------------------------+
|  Inner_Iter|     Min CFL|     Max CFL|      rms[P]|  Cauchy[CD]|          CD|
+-----------------------------------------------------------------------------+
|        8210|  6.6234e+01|  6.6234e+01|  -10.083972|  1.0822e-06|    0.172440|
|        8220|  6.6234e+01|  6.6234e+01|  -10.086709|  1.0735e-06|    0.172442|
|        8230|  6.6234e+01|  6.6234e+01|  -10.089442|  1.0648e-06|    0.172443|
|        8240|  6.6234e+01|  6.6234e+01|  -10.092173|  1.0562e-06|    0.172445|
|        8250|  6.6234e+01|  6.6234e+01|  -10.094900|  1.0476e-06|    0.172447|
|        8260|  6.6234e+01|  6.6234e+01|  -10.097624|  1.0390e-06|    0.172448|
|        8270|  6.6234e+01|  6.6234e+01|  -10.100346|  1.0306e-06|    0.172450|
|        8280|  6.6234e+01|  6.6234e+01|  -10.103065|  1.0221e-06|    0.172451|
|        8290|  6.6234e+01|  6.6234e+01|  -10.105781|  1.0138e-06|    0.172453|
|        8300|  6.6234e+01|  6.6234e+01|  -10.108493|  1.0054e-06|    0.172455|
|        8307|  6.6234e+01|  6.6234e+01|  -10.110390|  9.9966e-07|    0.172456|

----------------------------- Solver Exit -------------------------------
All convergence criteria satisfied.
+-----------------------------------------------------------------------+
|      Convergence Field     |     Value    |   Criterion  |  Converged |
+-----------------------------------------------------------------------+
|                      rms[P]|      -10.1104|          < -9|         Yes|
|                  Cauchy[CD]|    9.9966e-07|       < 1e-06|         Yes|
+-----------------------------------------------------------------------+
-------------------------------------------------------------------------
+-----------------------------------------------------------------------+
|        File Writing Summary       |              Filename             |
+-----------------------------------------------------------------------+
|SU2 binary restart                 |restart_flow_G9.dat                |
|Paraview                           |flow_G9.vtu                        |
|Paraview surface                   |surface_flow_G9.vtu                |
+-----------------------------------------------------------------------+

------------------------- Solver Postprocessing -------------------------
Deleted CNumerics container.
Deleted CIntegration container.
Deleted CSolver container.
Deleted CIteration container.
Deleted CInterface container.
Deleted CGeometry container.
Deleted CFreeFormDefBox class.
Deleted CSurfaceMovement class.
Deleted CVolumetricMovement class.
Deleted CConfig container.
Deleted nInst container.
Deleted COutput class.
-------------------------------------------------------------------------

------------------------- Exit Success (SU2_CFD) ------------------------

