
-------------------------------------------------------------------------
|    ___ _   _ ___                                                      |
|   / __| | | |_  )   Release 7.4.0 "Blackbird"                         |
|   \__ \ |_| |/ /                                                      |
|   |___/\___//___|   Suite (Computational Fluid Dynamics Code)         |
|                                                                       |
-------------------------------------------------------------------------
| SU2 Project Website: https://su2code.github.io                        |
|                                                                       |
| The SU2 Project is maintained by the SU2 Foundation                   |
| (http://su2foundation.org)                                            |
-------------------------------------------------------------------------
| Copyright 2012-2022, SU2 Contributors                                 |
|                                                                       |
| SU2 is free software; you can redistribute it and/or                  |
| modify it under the terms of the GNU Lesser General Public            |
| License as published by the Free Software Foundation; either          |
| version 2.1 of the License, or (at your option) any later version.    |
|                                                                       |
| SU2 is distributed in the hope that it will be useful,                |
| but WITHOUT ANY WARRANTY; without even the implied warranty of        |
| MERCHANTABILITY or FITNESS FOR A PARTICULAR PURPOSE. See the GNU      |
| Lesser General Public License for more details.                       |
|                                                                       |
| You should have received a copy of the GNU Lesser General Public      |
| License along with SU2. If not, see <http://www.gnu.org/licenses/>.   |
-------------------------------------------------------------------------

Parsing config file for zone 0

----------------- Physical Case Definition ( Zone 0 ) -------------------
Incompressible RANS equations.
Turbulence model: Spalart-Allmaras-noft2
Hybrid RANS/LES: No Hybrid RANS/LES
No restart solution, use the values at infinity (freestream).
Non-Dimensional simulation using intialization values.
The reference area is 1 m^2.
The semi-span will be computed using the max y(3D) value.
The reference length is 1.00898 m.
Reference origin for moment evaluation is (-0.756, 0, 0).
Surface(s) where the force coefficients are evaluated: AIRFOIL.

Surface(s) plotted in the output file: AIRFOIL.
Input mesh file name: ../meshG5/meshG5.su2

--------------- Space Numerical Integration ( Zone 0 ) ------------------
Flux difference splitting (FDS) upwind scheme for the flow inviscid terms.
First order integration in space.
Average of gradients with correction (viscous flow terms).
Average of gradients with correction (viscous turbulence terms).
Gradient for upwind reconstruction: unweighted Least-Squares.
Gradient for viscous and source terms: Green-Gauss.

--------------- Time Numerical Integration  ( Zone 0 ) ------------------
Local time stepping (steady state simulation).
Euler implicit method for the flow equations.
FGMRES is used for solving the linear system.
Using a ILU(0) preconditioning.
Convergence criteria of the linear solver: 1e-06.
Max number of linear iterations: 10.
CFL adaptation. Factor down: 0.1, factor up: 1.2,
                lower limit: 1, upper limit: 1000,
                acceptable linear residual: 0.001.
Courant-Friedrichs-Lewy number:        2
Euler implicit time integration for the turbulence model.

------------------ Convergence Criteria  ( Zone 0 ) ---------------------
Maximum number of solver subiterations: 9999.
Begin convergence monitoring at iteration 10.
Residual minimum value: 1e-9.
Cauchy series min. value: 1e-06.
Number of Cauchy elements: 250.
Begin windowed time average at iteration 0.

-------------------- Output Information ( Zone 0 ) ----------------------
File writing frequency: 
+------------------------------------+
|                     File| Frequency|
+------------------------------------+
|                  RESTART|       200|
|                 PARAVIEW|       200|
|         SURFACE_PARAVIEW|       200|
+------------------------------------+
Writing the convergence history file every 1 inner iterations.
Writing the screen convergence history every 10 inner iterations.
The tabular file format is CSV (.csv).
Convergence history file name: history_G5.
Forces breakdown file name: forces_breakdown.dat.
Surface file name: surface_flow_G5.
Volume file name: flow_G5.
Restart file name: restart_flow_G5.dat.

------------- Config File Boundary Information ( Zone 0 ) ---------------
+-----------------------------------------------------------------------+
|                        Marker Type|                        Marker Name|
+-----------------------------------------------------------------------+
|                          Far-field|                           FARFIELD|
+-----------------------------------------------------------------------+
|                     Heat flux wall|                            AIRFOIL|
+-----------------------------------------------------------------------+

-------------------- Output Preprocessing ( Zone 0 ) --------------------

WARNING: SURFACE_PRESSURE_DROP can only be computed for at least 2 surfaces (outlet, inlet, ...)

Screen output fields: INNER_ITER, MIN_CFL, MAX_CFL, RMS_PRESSURE, CAUCHY_DRAG, DRAG
History output group(s): INNER_ITER, MIN_CFL, MAX_CFL, RMS_RES, LIFT, DRAG, MOMENT_Z, CAUCHY
Convergence field(s): RMS_PRESSURE, DRAG
Warning: No (valid) fields chosen for time convergence monitoring. Time convergence monitoring inactive.
Volume output fields: COORDINATES, SOLUTION, PRIMITIVE, RESIDUAL, MESH_QUALITY

------------------- Geometry Preprocessing ( Zone 0 ) -------------------
Two dimensional problem.
206952 grid points before partitioning.
205920 volume elements before partitioning.
2 surface markers.
618 boundary elements in index 0 (Marker = AIRFOIL).
1446 boundary elements in index 1 (Marker = FARFIELD).
Executing the partitioning functions.
Building the graph adjacency structure.
Calling ParMETIS... graph partitioning complete (3066 edge cuts).
Distributing ParMETIS coloring.
Rebalancing vertices.
Rebalancing volume element connectivity.
Rebalancing markers and surface elements.
213106 vertices including ghost points. 
208985 interior elements including halo cells. 
208985 quadrilaterals.
Establishing MPI communication patterns.
Setting point connectivity.
Renumbering points (Reverse Cuthill McKee Ordering).
Recomputing point connectivity.
Setting element connectivity.
Checking the numerical grid orientation.
All volume elements are correctly orientend.
There has been a re-orientation of 1039 LINE surface elements.
Identifying edges and vertices.
Setting the control volume structure.
Area of the computational grid: 3230.14.
Searching for the closest normal neighbors to the surfaces.
Storing a mapping from global to local point index.
Compute the surface curvature.
Max K: 5203.37. Mean K: 5.32381. Standard deviation K: 116.416.
Checking for periodicity.
Computing mesh quality statistics for the dual control volumes.
+--------------------------------------------------------------+
|           Mesh Quality Metric|        Minimum|        Maximum|
+--------------------------------------------------------------+
|    Orthogonality Angle (deg.)|        76.8533|             90|
|     CV Face Area Aspect Ratio|        1.00007|         222436|
|           CV Sub-Volume Ratio|              1|         150.61|
+--------------------------------------------------------------+
Finding max control volume width.
Communicating number of neighbors.
Wetted area = 2.05966 m.
Area projection in the x-plane = 0.121115 m, y-plane = 1.00879 m.
Max. coordinate in the x-direction = 1.00898 m, y-direction = 0.075984 m.
Min. coordinate in the x-direction = 6.64364e-06 m, y-direction = -0.0451339 m.
Computing wall distances.

-------------------- Solver Preprocessing ( Zone 0 ) --------------------
Incompressible flow: rho_ref, vel_ref, and temp_ref
are based on the initial values, p_ref = rho_ref*vel_ref^2.
Force coefficients computed using initial values.
The reference area for force coeffs. is 1 m^2.
The reference length for force coeffs. is 1.00898 m.
The pressure is decomposed into thermodynamic and dynamic components.
The initial value of the dynamic pressure is 0.
Mach number: 0.0276747, computed using the Bulk modulus.
For external flows, the initial state is imposed at the far-field.
Angle of attack (deg): 14, computed using the initial velocity.
Side slip angle (deg): 0, computed using the initial velocity.
Reynolds number per meter: 594999, computed using initial values.
Reynolds number is a byproduct of inputs only (not used internally).
SI units only. The grid should be dimensional (meters).
No energy equation.

-- Models:
+------------------------------------------------------------------------------+
|          Viscosity Model|        Conductivity Model|              Fluid Model|
+------------------------------------------------------------------------------+
|       CONSTANT_VISCOSITY|          CONSTANT_PRANDTL|         CONSTANT_DENSITY|
+------------------------------------------------------------------------------+
-- Fluid properties:
+------------------------------------------------------------------------------+
|                  Name|    Dim. value|    Ref. value|      Unit|Non-dim. value|
+------------------------------------------------------------------------------+
|             Viscosity|      1.92e-05|        11.424|   N.s/m^2|   1.68067e-06|
+------------------------------------------------------------------------------+
|        Prandtl (Lam.)|             -|             -|         -|          0.72|
|       Prandtl (Turb.)|             -|             -|         -|           0.9|
+------------------------------------------------------------------------------+
|          Bulk Modulus|        142000|             1|        Pa|        142000|
+------------------------------------------------------------------------------+
-- Initial and free-stream conditions:
+------------------------------------------------------------------------------+
|                  Name|    Dim. value|    Ref. value|      Unit|Non-dim. value|
+------------------------------------------------------------------------------+
|      Dynamic Pressure|             0|       108.756|        Pa|             0|
|        Total Pressure|       54.3781|       108.756|        Pa|           0.5|
|               Density|           1.2|           1.2|    kg/m^3|             1|
|            Velocity-X|        9.2372|       9.51999|       m/s|      0.970296|
|            Velocity-Y|        2.3031|       9.51999|       m/s|      0.241923|
|    Velocity Magnitude|       9.51999|       9.51999|       m/s|             1|
+------------------------------------------------------------------------------+
|             Viscosity|      1.92e-05|        11.424|   N.s/m^2|   1.68067e-06|
|          Conductivity|             -|       3.59312|   W/m^2.K|             -|
|     Turb. Kin. Energy|       1.35945|       90.6301|   m^2/s^2|         0.015|
|     Spec. Dissipation|       8496.58|       9.51999|       1/s|       892.499|
+------------------------------------------------------------------------------+
|           Mach Number|             -|             -|         -|     0.0276747|
|       Reynolds Number|             -|             -|         -|        594999|
+------------------------------------------------------------------------------+
Initialize Jacobian structure (Navier-Stokes). MG level: 0.
Initialize Jacobian structure (SA model).

------------------- Numerics Preprocessing ( Zone 0 ) -------------------

----------------- Integration Preprocessing ( Zone 0 ) ------------------

------------------- Iteration Preprocessing ( Zone 0 ) ------------------
Euler/Navier-Stokes/RANS fluid iteration.

------------------------------ Begin Solver -----------------------------

Simulation Run using the Single-zone Driver
+-----------------------------------------------------------------------------+
|  Inner_Iter|     Min CFL|     Max CFL|      rms[P]|  Cauchy[CD]|          CD|
+-----------------------------------------------------------------------------+
|           0|  2.4000e+00|  2.4000e+00|   -4.232520|  1.0000e+00|    0.655492|
|          10|  1.4860e+01|  1.4860e+01|   -4.961741|  1.2269e-03|    0.881795|
|          20|  7.6675e+00|  7.6675e+00|   -5.106482|  1.3321e-03|    0.858943|
|          30|  3.9563e+00|  3.9563e+00|   -5.023704|  1.7973e-03|    0.765510|
|          40|  2.4496e+01|  2.4496e+01|   -4.982482|  2.2264e-03|    0.688166|
|          50|  1.2639e+01|  1.2639e+01|   -4.954152|  3.0951e-03|    0.555854|
|          60|  4.5290e+01|  4.5290e+01|   -4.981670|  5.0556e-03|    0.345573|
|          70|  1.6228e+01|  1.6228e+01|   -5.109932|  7.2077e-03|    0.206218|
|          80|  8.3733e+00|  8.3733e+00|   -5.134431|  9.0702e-03|    0.131291|
|          90|  5.1845e+01|  5.1845e+01|   -5.144724|  1.0482e-02|    0.092389|
|         100|  2.6751e+01|  2.6751e+01|   -5.166171|  1.1495e-02|    0.067070|
|         110|  1.3803e+01|  1.3803e+01|   -5.167463|  1.3366e-02|    0.020310|
|         120|  7.1220e+00|  7.1220e+00|   -5.192304|  1.5049e-02|   -0.021766|
|         130|  4.4098e+01|  4.4098e+01|   -5.204500|  1.5495e-02|   -0.014259|
|         140|  2.2754e+01|  2.2754e+01|   -5.214363|  1.7283e-02|    0.030440|
|         150|  1.1740e+01|  1.1740e+01|   -5.244624|  2.1162e-02|    0.134856|
|         160|  6.0577e+00|  6.0577e+00|   -5.239090|  2.3551e-02|    0.249903|
|         170|  3.7508e+01|  3.7508e+01|   -5.220497|  2.4012e-02|    0.280584|
|         180|  5.4011e+01|  5.4011e+01|   -5.267911|  2.5250e-02|    0.213450|
|         190|  1.9353e+01|  1.9353e+01|   -5.354326|  2.6755e-02|    0.148146|
|         200|  9.9859e+00|  9.9859e+00|   -5.387864|  2.7538e-02|    0.122143|
+-----------------------------------------------------------------------+
|        File Writing Summary       |              Filename             |
+-----------------------------------------------------------------------+
|SU2 binary restart                 |restart_flow_G5.dat                |
|Paraview                           |flow_G5.vtu                        |
|Paraview surface                   |surface_flow_G5.vtu                |
+-----------------------------------------------------------------------+
+-----------------------------------------------------------------------------+
|  Inner_Iter|     Min CFL|     Max CFL|      rms[P]|  Cauchy[CD]|          CD|
+-----------------------------------------------------------------------------+
|         210|  6.1830e+01|  6.1830e+01|   -5.361376|  2.7832e-02|    0.130142|
|         220|  3.1903e+01|  3.1903e+01|   -5.337997|  2.8246e-02|    0.144439|
|         230|  1.6461e+01|  1.6461e+01|   -5.369180|  2.8673e-02|    0.160887|
|         240|  5.8983e+01|  5.8983e+01|   -5.471018|  2.8772e-02|    0.163977|
|         250|  3.0434e+01|  3.0434e+01|   -5.509650|  2.8789e-02|    0.163275|
|         260|  1.5703e+01|  1.5703e+01|   -5.503391|  2.7578e-02|    0.163758|
|         270|  5.6268e+01|  5.6268e+01|   -5.500104|  2.7556e-02|    0.160842|
|         280|  2.0162e+01|  2.0162e+01|   -5.562294|  2.7386e-02|    0.149459|
|         290|  1.0403e+01|  1.0403e+01|   -5.673189|  2.7353e-02|    0.135473|
|         300|  6.4413e+01|  6.4413e+01|   -5.717302|  2.6589e-02|    0.132235|
|         310|  3.3236e+01|  3.3236e+01|   -5.711511|  2.4717e-02|    0.135194|
|         320|  1.7149e+01|  1.7149e+01|   -5.699431|  2.2832e-02|    0.144579|
|         330|  6.1447e+01|  6.1447e+01|   -5.793790|  2.1279e-02|    0.156257|
|         340|  2.2018e+01|  2.2018e+01|   -5.982227|  1.9930e-02|    0.158756|
|         350|  1.1361e+01|  1.1361e+01|   -6.061736|  1.9029e-02|    0.154415|
|         360|  5.8619e+01|  5.8619e+01|   -6.028469|  1.7446e-02|    0.143768|
|         370|  1.7503e+01|  1.7503e+01|   -6.114382|  1.6201e-02|    0.128958|
|         380|  9.0314e+00|  9.0314e+00|   -6.280038|  1.6010e-02|    0.121005|
|         390|  5.5920e+01|  5.5920e+01|   -6.252900|  1.4267e-02|    0.121748|
|         400|  6.7104e+01|  6.7104e+01|   -6.141996|  1.0880e-02|    0.137785|
+-----------------------------------------------------------------------+
|        File Writing Summary       |              Filename             |
+-----------------------------------------------------------------------+
|SU2 binary restart                 |restart_flow_G5.dat                |
|Paraview                           |flow_G5.vtu                        |
|Paraview surface                   |surface_flow_G5.vtu                |
+-----------------------------------------------------------------------+
+-----------------------------------------------------------------------------+
|  Inner_Iter|     Min CFL|     Max CFL|      rms[P]|  Cauchy[CD]|          CD|
+-----------------------------------------------------------------------------+
|         410|  2.4045e+01|  2.4045e+01|   -6.275614|  8.6433e-03|    0.143159|
|         420|  1.2406e+01|  1.2406e+01|   -6.527223|  8.2311e-03|    0.143991|
|         430|  6.4015e+01|  6.4015e+01|   -6.529604|  7.1233e-03|    0.139376|
|         440|  2.7525e+01|  2.7525e+01|   -6.428398|  5.8198e-03|    0.132558|
|         450|  6.8491e+01|  6.8491e+01|   -6.485284|  5.3233e-03|    0.123446|
|         460|  6.8491e+01|  6.8491e+01|   -6.643466|  5.1758e-03|    0.126910|
|         470|  8.2189e+00|  8.2189e+00|   -6.576268|  4.9348e-03|    0.132510|
|         480|  5.0890e+01|  5.0890e+01|   -6.571811|  4.5177e-03|    0.132410|
|         490|  2.6258e+01|  2.6258e+01|   -6.574989|  4.4742e-03|    0.130611|
|         500|  1.3548e+01|  1.3548e+01|   -6.546271|  4.5636e-03|    0.127185|
|         510|  6.9907e+01|  6.9907e+01|   -6.511150|  4.6235e-03|    0.124786|
|         520|  6.9907e+01|  6.9907e+01|   -6.558529|  4.5788e-03|    0.124715|
|         530|  2.0874e+01|  2.0874e+01|   -6.699176|  4.3088e-03|    0.125507|
|         540|  7.4796e+01|  7.4796e+01|   -6.819514|  3.9398e-03|    0.124781|
|         550|  7.4796e+01|  7.4796e+01|   -6.832980|  3.9519e-03|    0.121171|
|         560|  7.4796e+01|  7.4796e+01|   -6.844768|  3.9030e-03|    0.120510|
|         570|  7.4796e+01|  7.4796e+01|   -6.921102|  3.6769e-03|    0.121753|
|         580|  3.8593e+01|  3.8593e+01|   -6.950869|  3.3742e-03|    0.121558|
|         590|  8.0027e+01|  8.0027e+01|   -6.923907|  3.3781e-03|    0.119534|
|         600|  8.0027e+01|  8.0027e+01|   -6.919739|  3.3130e-03|    0.118173|
+-----------------------------------------------------------------------+
|        File Writing Summary       |              Filename             |
+-----------------------------------------------------------------------+
|SU2 binary restart                 |restart_flow_G5.dat                |
|Paraview                           |flow_G5.vtu                        |
|Paraview surface                   |surface_flow_G5.vtu                |
+-----------------------------------------------------------------------+
+-----------------------------------------------------------------------------+
|  Inner_Iter|     Min CFL|     Max CFL|      rms[P]|  Cauchy[CD]|          CD|
+-----------------------------------------------------------------------------+
|         610|  8.0027e+01|  8.0027e+01|   -6.941958|  3.0582e-03|    0.119134|
|         620|  2.8675e+01|  2.8675e+01|   -6.945353|  2.6295e-03|    0.119427|
|         630|  8.5623e+01|  8.5623e+01|   -6.930181|  2.3912e-03|    0.118917|
|         640|  8.5623e+01|  8.5623e+01|   -6.938189|  2.3741e-03|    0.118087|
|         650|  8.5623e+01|  8.5623e+01|   -6.962071|  1.8920e-03|    0.118344|
|         660|  8.5623e+01|  8.5623e+01|   -6.997552|  1.7459e-03|    0.118464|
|         670|  1.4796e+01|  1.4796e+01|   -7.037872|  1.7061e-03|    0.118214|
|         680|  9.1611e+01|  9.1611e+01|   -7.045759|  1.5787e-03|    0.118117|
|         690|  9.1611e+01|  9.1611e+01|   -7.058242|  1.3802e-03|    0.118031|
|         700|  9.1611e+01|  9.1611e+01|   -7.112273|  1.1010e-03|    0.117832|
|         710|  9.1611e+01|  9.1611e+01|   -7.214837|  9.6427e-04|    0.117523|
|         720|  3.9391e+01|  3.9391e+01|   -7.279179|  7.9548e-04|    0.117421|
|         730|  2.0325e+01|  2.0325e+01|   -7.343862|  7.8982e-04|    0.117275|
|         740|  8.7393e+01|  8.7393e+01|   -7.399702|  7.4182e-04|    0.117076|
|         750|  8.7393e+01|  8.7393e+01|   -7.455748|  6.4866e-04|    0.116686|
|         760|  1.0487e+01|  1.0487e+01|   -7.401787|  5.8358e-04|    0.116361|
|         770|  6.4934e+01|  6.4934e+01|   -7.384140|  5.4847e-04|    0.116261|
|         780|  3.3504e+01|  3.3504e+01|   -7.360505|  5.2815e-04|    0.116116|
|         790|  8.3370e+01|  8.3370e+01|   -7.330547|  5.1147e-04|    0.115834|
|         800|  8.3370e+01|  8.3370e+01|   -7.317882|  4.0561e-04|    0.115494|
+-----------------------------------------------------------------------+
|        File Writing Summary       |              Filename             |
+-----------------------------------------------------------------------+
|SU2 binary restart                 |restart_flow_G5.dat                |
|Paraview                           |flow_G5.vtu                        |
|Paraview surface                   |surface_flow_G5.vtu                |
+-----------------------------------------------------------------------+
+-----------------------------------------------------------------------------+
|  Inner_Iter|     Min CFL|     Max CFL|      rms[P]|  Cauchy[CD]|          CD|
+-----------------------------------------------------------------------------+
|         810|  8.3370e+01|  8.3370e+01|   -7.331519|  3.7636e-04|    0.115200|
|         820|  8.3370e+01|  8.3370e+01|   -7.362561|  3.4456e-04|    0.114935|
|         830|  1.7288e+01|  1.7288e+01|   -7.398867|  3.4337e-04|    0.114777|
|         840|  8.9200e+00|  8.9200e+00|   -7.417405|  2.8028e-04|    0.114659|
|         850|  5.5230e+01|  5.5230e+01|   -7.439589|  2.3611e-04|    0.114602|
|         860|  7.9532e+00|  7.9532e+00|   -7.486934|  2.1014e-04|    0.114418|
|         870|  4.9244e+01|  4.9244e+01|   -7.511677|  2.0166e-04|    0.114380|
|         880|  2.5409e+01|  2.5409e+01|   -7.540992|  1.8678e-04|    0.114312|
|         890|  7.5870e+01|  7.5870e+01|   -7.581166|  1.6204e-04|    0.114218|
|         900|  1.3110e+01|  1.3110e+01|   -7.643730|  1.5547e-04|    0.114129|
|         910|  8.1176e+01|  8.1176e+01|   -7.671650|  1.5069e-04|    0.114084|
|         920|  4.1885e+01|  4.1885e+01|   -7.701521|  1.4342e-04|    0.114051|
|         930|  7.2377e+01|  7.2377e+01|   -7.754710|  1.4308e-04|    0.113967|
|         940|  7.2377e+01|  7.2377e+01|   -7.800594|  1.4302e-04|    0.113885|
|         950|  7.2377e+01|  7.2377e+01|   -7.804828|  1.3863e-04|    0.113819|
|         960|  7.2377e+01|  7.2377e+01|   -7.776539|  1.3044e-04|    0.113753|
|         970|  7.2377e+01|  7.2377e+01|   -7.741396|  1.2923e-04|    0.113689|
|         980|  7.2377e+01|  7.2377e+01|   -7.718622|  1.2629e-04|    0.113630|
|         990|  7.2377e+01|  7.2377e+01|   -7.716547|  1.2149e-04|    0.113574|
|        1000|  1.0422e+01|  1.0422e+01|   -7.736929|  1.0971e-04|    0.113529|
+-----------------------------------------------------------------------+
|        File Writing Summary       |              Filename             |
+-----------------------------------------------------------------------+
|SU2 binary restart                 |restart_flow_G5.dat                |
|Paraview                           |flow_G5.vtu                        |
|Paraview surface                   |surface_flow_G5.vtu                |
+-----------------------------------------------------------------------+
+-----------------------------------------------------------------------------+
|  Inner_Iter|     Min CFL|     Max CFL|      rms[P]|  Cauchy[CD]|          CD|
+-----------------------------------------------------------------------------+
|        1010|  6.4532e+01|  6.4532e+01|   -7.748794|  9.9161e-05|    0.113512|
|        1020|  3.3297e+01|  3.3297e+01|   -7.765959|  9.6513e-05|    0.113490|
|        1030|  6.9045e+01|  6.9045e+01|   -7.798193|  9.3111e-05|    0.113445|
|        1040|  1.4317e+01|  1.4317e+01|   -7.844663|  8.4489e-05|    0.113413|
|        1050|  7.3874e+00|  7.3874e+00|   -7.870548|  7.3509e-05|    0.113391|
|        1060|  4.5741e+01|  4.5741e+01|   -7.896008|  6.3698e-05|    0.113381|
|        1070|  6.5867e+01|  6.5867e+01|   -7.946445|  5.5811e-05|    0.113343|
|        1080|  2.8321e+01|  2.8321e+01|   -7.976720|  5.0794e-05|    0.113329|
|        1090|  1.4613e+01|  1.4613e+01|   -8.000542|  4.7324e-05|    0.113311|
|        1100|  6.2834e+01|  6.2834e+01|   -8.020187|  4.5988e-05|    0.113292|
|        1110|  6.2834e+01|  6.2834e+01|   -8.051912|  4.0610e-05|    0.113262|
|        1120|  6.2834e+01|  6.2834e+01|   -8.069469|  4.0135e-05|    0.113238|
|        1130|  1.3029e+01|  1.3029e+01|   -8.080602|  3.8218e-05|    0.113225|
|        1140|  6.7228e+00|  6.7228e+00|   -8.080618|  3.5213e-05|    0.113217|
|        1150|  4.1626e+01|  4.1626e+01|   -8.084338|  3.2263e-05|    0.113212|
|        1160|  5.9941e+01|  5.9941e+01|   -8.080458|  3.1291e-05|    0.113195|
|        1170|  5.9941e+01|  5.9941e+01|   -8.082818|  3.0558e-05|    0.113183|
|        1180|  5.9941e+01|  5.9941e+01|   -8.087227|  2.7724e-05|    0.113180|
|        1190|  5.9941e+01|  5.9941e+01|   -8.093834|  2.4890e-05|    0.113179|
|        1200|  5.9941e+01|  5.9941e+01|   -8.103644|  2.2558e-05|    0.113179|
+-----------------------------------------------------------------------+
|        File Writing Summary       |              Filename             |
+-----------------------------------------------------------------------+
|SU2 binary restart                 |restart_flow_G5.dat                |
|Paraview                           |flow_G5.vtu                        |
|Paraview surface                   |surface_flow_G5.vtu                |
+-----------------------------------------------------------------------+
+-----------------------------------------------------------------------------+
|  Inner_Iter|     Min CFL|     Max CFL|      rms[P]|  Cauchy[CD]|          CD|
+-----------------------------------------------------------------------------+
|        1210|  7.1930e+00|  7.1930e+00|   -8.118345|  2.0319e-05|    0.113181|
|        1220|  4.4537e+01|  4.4537e+01|   -8.129426|  1.8178e-05|    0.113184|
|        1230|  2.2980e+01|  2.2980e+01|   -8.137677|  1.6164e-05|    0.113186|
|        1240|  5.7182e+01|  5.7182e+01|   -8.148287|  1.4367e-05|    0.113191|
|        1250|  5.7182e+01|  5.7182e+01|   -8.174239|  1.3074e-05|    0.113199|
|        1260|  9.8810e+00|  9.8810e+00|   -8.201032|  1.2740e-05|    0.113207|
|        1270|  6.1181e+01|  6.1181e+01|   -8.212851|  1.2207e-05|    0.113214|
|        1280|  3.1568e+01|  3.1568e+01|   -8.225206|  1.0744e-05|    0.113217|
|        1290|  5.4549e+01|  5.4549e+01|   -8.241081|  1.0024e-05|    0.113229|
|        1300|  5.4549e+01|  5.4549e+01|   -8.264026|  9.6902e-06|    0.113241|
|        1310|  5.4549e+01|  5.4549e+01|   -8.281019|  9.8057e-06|    0.113255|
|        1320|  5.4549e+01|  5.4549e+01|   -8.292253|  9.0390e-06|    0.113271|
|        1330|  2.8146e+01|  2.8146e+01|   -8.301830|  8.7642e-06|    0.113277|
|        1340|  1.4523e+01|  1.4523e+01|   -8.304132|  8.3855e-06|    0.113284|
|        1350|  5.2038e+01|  5.2038e+01|   -8.302986|  8.0510e-06|    0.113294|
|        1360|  5.2038e+01|  5.2038e+01|   -8.308000|  7.5044e-06|    0.113308|
|        1370|  5.2038e+01|  5.2038e+01|   -8.314958|  7.1806e-06|    0.113323|
|        1380|  5.2038e+01|  5.2038e+01|   -8.324741|  7.3585e-06|    0.113341|
|        1390|  5.2038e+01|  5.2038e+01|   -8.336777|  7.7159e-06|    0.113359|
|        1400|  5.2038e+01|  5.2038e+01|   -8.351046|  8.1537e-06|    0.113376|
+-----------------------------------------------------------------------+
|        File Writing Summary       |              Filename             |
+-----------------------------------------------------------------------+
|SU2 binary restart                 |restart_flow_G5.dat                |
|Paraview                           |flow_G5.vtu                        |
|Paraview surface                   |surface_flow_G5.vtu                |
+-----------------------------------------------------------------------+
+-----------------------------------------------------------------------------+
|  Inner_Iter|     Min CFL|     Max CFL|      rms[P]|  Cauchy[CD]|          CD|
+-----------------------------------------------------------------------------+
|        1410|  5.2038e+01|  5.2038e+01|   -8.367465|  8.1366e-06|    0.113393|
|        1420|  6.2446e+00|  6.2446e+00|   -8.384801|  8.2590e-06|    0.113408|
|        1430|  3.8665e+01|  3.8665e+01|   -8.396276|  8.3657e-06|    0.113415|
|        1440|  1.9950e+01|  1.9950e+01|   -8.403519|  8.5982e-06|    0.113422|
|        1450|  4.9642e+01|  4.9642e+01|   -8.409948|  9.0600e-06|    0.113436|
|        1460|  4.9642e+01|  4.9642e+01|   -8.425611|  9.5867e-06|    0.113453|
|        1470|  4.9642e+01|  4.9642e+01|   -8.439609|  1.0084e-05|    0.113470|
|        1480|  4.9642e+01|  4.9642e+01|   -8.453334|  1.0674e-05|    0.113488|
|        1490|  4.9642e+01|  4.9642e+01|   -8.465398|  1.1154e-05|    0.113507|
|        1500|  4.9642e+01|  4.9642e+01|   -8.476609|  1.1510e-05|    0.113525|
|        1510|  4.9642e+01|  4.9642e+01|   -8.487178|  1.1875e-05|    0.113543|
|        1520|  1.0294e+01|  1.0294e+01|   -8.498390|  1.2042e-05|    0.113555|
|        1530|  5.3114e+00|  5.3114e+00|   -8.501284|  1.2278e-05|    0.113565|
|        1540|  3.2887e+01|  3.2887e+01|   -8.507391|  1.2054e-05|    0.113570|
|        1550|  4.7357e+01|  4.7357e+01|   -8.507734|  1.2186e-05|    0.113586|
|        1560|  4.7357e+01|  4.7357e+01|   -8.515966|  1.2313e-05|    0.113604|
|        1570|  4.7357e+01|  4.7357e+01|   -8.523611|  1.2358e-05|    0.113621|
|        1580|  4.7357e+01|  4.7357e+01|   -8.531352|  1.2799e-05|    0.113640|
|        1590|  4.7357e+01|  4.7357e+01|   -8.538352|  1.3166e-05|    0.113658|
|        1600|  4.7357e+01|  4.7357e+01|   -8.545804|  1.3454e-05|    0.113675|
+-----------------------------------------------------------------------+
|        File Writing Summary       |              Filename             |
+-----------------------------------------------------------------------+
|SU2 binary restart                 |restart_flow_G5.dat                |
|Paraview                           |flow_G5.vtu                        |
|Paraview surface                   |surface_flow_G5.vtu                |
+-----------------------------------------------------------------------+
+-----------------------------------------------------------------------------+
|  Inner_Iter|     Min CFL|     Max CFL|      rms[P]|  Cauchy[CD]|          CD|
+-----------------------------------------------------------------------------+
|        1610|  4.7357e+01|  4.7357e+01|   -8.554202|  1.3560e-05|    0.113693|
|        1620|  4.7357e+01|  4.7357e+01|   -8.562749|  1.3628e-05|    0.113710|
|        1630|  4.7357e+01|  4.7357e+01|   -8.571266|  1.3621e-05|    0.113727|
|        1640|  4.7357e+01|  4.7357e+01|   -8.580173|  1.3589e-05|    0.113745|
|        1650|  8.1833e+00|  8.1833e+00|   -8.591350|  1.3428e-05|    0.113757|
|        1660|  5.0669e+01|  5.0669e+01|   -8.596150|  1.3135e-05|    0.113766|
|        1670|  2.6144e+01|  2.6144e+01|   -8.600834|  1.2768e-05|    0.113771|
|        1680|  4.5177e+01|  4.5177e+01|   -8.600955|  1.3042e-05|    0.113785|
|        1690|  4.5177e+01|  4.5177e+01|   -8.608225|  1.3341e-05|    0.113801|
|        1700|  4.5177e+01|  4.5177e+01|   -8.614817|  1.3418e-05|    0.113817|
|        1710|  4.5177e+01|  4.5177e+01|   -8.621696|  1.3381e-05|    0.113833|
|        1720|  4.5177e+01|  4.5177e+01|   -8.627895|  1.3348e-05|    0.113849|
|        1730|  4.5177e+01|  4.5177e+01|   -8.633536|  1.3261e-05|    0.113865|
|        1740|  4.5177e+01|  4.5177e+01|   -8.639395|  1.3142e-05|    0.113880|
|        1750|  4.5177e+01|  4.5177e+01|   -8.645268|  1.3028e-05|    0.113896|
|        1760|  4.5177e+01|  4.5177e+01|   -8.651065|  1.2932e-05|    0.113911|
|        1770|  4.5177e+01|  4.5177e+01|   -8.656995|  1.3056e-05|    0.113926|
|        1780|  4.5177e+01|  4.5177e+01|   -8.663016|  1.3226e-05|    0.113942|
|        1790|  4.5177e+01|  4.5177e+01|   -8.668903|  1.3584e-05|    0.113957|
|        1800|  4.5177e+01|  4.5177e+01|   -8.674739|  1.3539e-05|    0.113972|
+-----------------------------------------------------------------------+
|        File Writing Summary       |              Filename             |
+-----------------------------------------------------------------------+
|SU2 binary restart                 |restart_flow_G5.dat                |
|Paraview                           |flow_G5.vtu                        |
|Paraview surface                   |surface_flow_G5.vtu                |
+-----------------------------------------------------------------------+
+-----------------------------------------------------------------------------+
|  Inner_Iter|     Min CFL|     Max CFL|      rms[P]|  Cauchy[CD]|          CD|
+-----------------------------------------------------------------------------+
|        1810|  4.5177e+01|  4.5177e+01|   -8.680740|  1.3447e-05|    0.113986|
|        1820|  4.5177e+01|  4.5177e+01|   -8.686872|  1.3353e-05|    0.114001|
|        1830|  4.5177e+01|  4.5177e+01|   -8.693008|  1.3237e-05|    0.114016|
|        1840|  4.5177e+01|  4.5177e+01|   -8.699037|  1.3118e-05|    0.114031|
|        1850|  4.5177e+01|  4.5177e+01|   -8.704883|  1.3009e-05|    0.114046|
|        1860|  4.5177e+01|  4.5177e+01|   -8.710660|  1.2910e-05|    0.114060|
|        1870|  4.5177e+01|  4.5177e+01|   -8.716585|  1.2813e-05|    0.114075|
|        1880|  4.5177e+01|  4.5177e+01|   -8.722684|  1.2710e-05|    0.114089|
|        1890|  4.5177e+01|  4.5177e+01|   -8.728750|  1.2604e-05|    0.114104|
|        1900|  4.5177e+01|  4.5177e+01|   -8.734589|  1.2659e-05|    0.114118|
|        1910|  4.5177e+01|  4.5177e+01|   -8.740209|  1.2868e-05|    0.114132|
|        1920|  4.5177e+01|  4.5177e+01|   -8.745757|  1.3175e-05|    0.114146|
|        1930|  4.5177e+01|  4.5177e+01|   -8.751338|  1.3171e-05|    0.114161|
|        1940|  4.5177e+01|  4.5177e+01|   -8.756935|  1.3110e-05|    0.114175|
|        1950|  4.5177e+01|  4.5177e+01|   -8.762446|  1.3050e-05|    0.114189|
|        1960|  4.5177e+01|  4.5177e+01|   -8.767793|  1.2974e-05|    0.114203|
|        1970|  4.5177e+01|  4.5177e+01|   -8.772986|  1.2894e-05|    0.114217|
|        1980|  4.5177e+01|  4.5177e+01|   -8.778099|  1.2828e-05|    0.114231|
|        1990|  4.5177e+01|  4.5177e+01|   -8.783203|  1.2774e-05|    0.114245|
|        2000|  4.5177e+01|  4.5177e+01|   -8.788317|  1.2724e-05|    0.114258|
+-----------------------------------------------------------------------+
|        File Writing Summary       |              Filename             |
+-----------------------------------------------------------------------+
|SU2 binary restart                 |restart_flow_G5.dat                |
|Paraview                           |flow_G5.vtu                        |
|Paraview surface                   |surface_flow_G5.vtu                |
+-----------------------------------------------------------------------+
+-----------------------------------------------------------------------------+
|  Inner_Iter|     Min CFL|     Max CFL|      rms[P]|  Cauchy[CD]|          CD|
+-----------------------------------------------------------------------------+
|        2010|  4.5177e+01|  4.5177e+01|   -8.793412|  1.2671e-05|    0.114272|
|        2020|  4.5177e+01|  4.5177e+01|   -8.798456|  1.2615e-05|    0.114286|
|        2030|  4.5177e+01|  4.5177e+01|   -8.803455|  1.2560e-05|    0.114300|
|        2040|  4.5177e+01|  4.5177e+01|   -8.808448|  1.2509e-05|    0.114314|
|        2050|  4.5177e+01|  4.5177e+01|   -8.813473|  1.2463e-05|    0.114327|
|        2060|  4.5177e+01|  4.5177e+01|   -8.818542|  1.2419e-05|    0.114341|
|        2070|  4.5177e+01|  4.5177e+01|   -8.823644|  1.2372e-05|    0.114355|
|        2080|  4.5177e+01|  4.5177e+01|   -8.828767|  1.2324e-05|    0.114368|
|        2090|  4.5177e+01|  4.5177e+01|   -8.833920|  1.2281e-05|    0.114382|
|        2100|  4.5177e+01|  4.5177e+01|   -8.839119|  1.2241e-05|    0.114395|
|        2110|  4.5177e+01|  4.5177e+01|   -8.844369|  1.2203e-05|    0.114409|
|        2120|  4.5177e+01|  4.5177e+01|   -8.849658|  1.2166e-05|    0.114422|
|        2130|  4.5177e+01|  4.5177e+01|   -8.854967|  1.2129e-05|    0.114436|
|        2140|  4.5177e+01|  4.5177e+01|   -8.860293|  1.2093e-05|    0.114449|
|        2150|  4.5177e+01|  4.5177e+01|   -8.865643|  1.2058e-05|    0.114462|
|        2160|  4.5177e+01|  4.5177e+01|   -8.871023|  1.2026e-05|    0.114476|
|        2170|  4.5177e+01|  4.5177e+01|   -8.876440|  1.1995e-05|    0.114489|
|        2180|  4.5177e+01|  4.5177e+01|   -8.881886|  1.1965e-05|    0.114503|
|        2190|  4.5177e+01|  4.5177e+01|   -8.887349|  1.1936e-05|    0.114516|
|        2200|  4.5177e+01|  4.5177e+01|   -8.892832|  1.1906e-05|    0.114529|
+-----------------------------------------------------------------------+
|        File Writing Summary       |              Filename             |
+-----------------------------------------------------------------------+
|SU2 binary restart                 |restart_flow_G5.dat                |
|Paraview                           |flow_G5.vtu                        |
|Paraview surface                   |surface_flow_G5.vtu                |
+-----------------------------------------------------------------------+
+-----------------------------------------------------------------------------+
|  Inner_Iter|     Min CFL|     Max CFL|      rms[P]|  Cauchy[CD]|          CD|
+-----------------------------------------------------------------------------+
|        2210|  4.5177e+01|  4.5177e+01|   -8.898340|  1.1877e-05|    0.114542|
|        2220|  4.5177e+01|  4.5177e+01|   -8.904996|  1.1849e-05|    0.114556|
|        2230|  4.5177e+01|  4.5177e+01|   -8.911225|  1.1829e-05|    0.114569|
|        2240|  4.5177e+01|  4.5177e+01|   -8.917082|  1.1809e-05|    0.114582|
|        2250|  4.5177e+01|  4.5177e+01|   -8.922411|  1.1787e-05|    0.114596|
|        2260|  4.5177e+01|  4.5177e+01|   -8.927422|  1.1765e-05|    0.114609|
|        2270|  4.5177e+01|  4.5177e+01|   -8.932554|  1.1743e-05|    0.114622|
|        2280|  4.5177e+01|  4.5177e+01|   -8.938053|  1.1721e-05|    0.114635|
|        2290|  4.5177e+01|  4.5177e+01|   -8.943786|  1.1698e-05|    0.114648|
|        2300|  4.5177e+01|  4.5177e+01|   -8.949508|  1.1674e-05|    0.114661|
|        2310|  4.5177e+01|  4.5177e+01|   -8.955055|  1.1650e-05|    0.114674|
|        2320|  4.5177e+01|  4.5177e+01|   -8.960431|  1.1625e-05|    0.114687|
|        2330|  4.5177e+01|  4.5177e+01|   -8.965747|  1.1600e-05|    0.114700|
|        2340|  4.5177e+01|  4.5177e+01|   -8.971107|  1.1574e-05|    0.114713|
|        2350|  4.5177e+01|  4.5177e+01|   -8.976528|  1.1547e-05|    0.114726|
|        2360|  4.5177e+01|  4.5177e+01|   -8.981966|  1.1519e-05|    0.114739|
|        2370|  4.5177e+01|  4.5177e+01|   -8.987390|  1.1491e-05|    0.114751|
|        2380|  4.5177e+01|  4.5177e+01|   -8.992818|  1.1461e-05|    0.114764|
|        2390|  4.5177e+01|  4.5177e+01|   -8.998274|  1.1430e-05|    0.114777|
|        2400|  4.5177e+01|  4.5177e+01|   -9.003765|  1.1398e-05|    0.114789|
+-----------------------------------------------------------------------+
|        File Writing Summary       |              Filename             |
+-----------------------------------------------------------------------+
|SU2 binary restart                 |restart_flow_G5.dat                |
|Paraview                           |flow_G5.vtu                        |
|Paraview surface                   |surface_flow_G5.vtu                |
+-----------------------------------------------------------------------+
+-----------------------------------------------------------------------------+
|  Inner_Iter|     Min CFL|     Max CFL|      rms[P]|  Cauchy[CD]|          CD|
+-----------------------------------------------------------------------------+
|        2410|  4.5177e+01|  4.5177e+01|   -9.009281|  1.1366e-05|    0.114802|
|        2420|  4.5177e+01|  4.5177e+01|   -9.014807|  1.1332e-05|    0.114814|
|        2430|  4.5177e+01|  4.5177e+01|   -9.020333|  1.1297e-05|    0.114826|
|        2440|  4.5177e+01|  4.5177e+01|   -9.025855|  1.1261e-05|    0.114839|
|        2450|  4.5177e+01|  4.5177e+01|   -9.031372|  1.1224e-05|    0.114851|
|        2460|  4.5177e+01|  4.5177e+01|   -9.036882|  1.1186e-05|    0.114863|
|        2470|  4.5177e+01|  4.5177e+01|   -9.042388|  1.1146e-05|    0.114875|
|        2480|  4.5177e+01|  4.5177e+01|   -9.047891|  1.1099e-05|    0.114887|
|        2490|  4.5177e+01|  4.5177e+01|   -9.053393|  1.1052e-05|    0.114899|
|        2500|  4.5177e+01|  4.5177e+01|   -9.058891|  1.1004e-05|    0.114911|
|        2510|  4.5177e+01|  4.5177e+01|   -9.064379|  1.0955e-05|    0.114923|
|        2520|  4.5177e+01|  4.5177e+01|   -9.069857|  1.0906e-05|    0.114935|
|        2530|  4.5177e+01|  4.5177e+01|   -9.075326|  1.0856e-05|    0.114947|
|        2540|  4.5177e+01|  4.5177e+01|   -9.080788|  1.0806e-05|    0.114959|
|        2550|  4.5177e+01|  4.5177e+01|   -9.086239|  1.0755e-05|    0.114970|
|        2560|  4.5177e+01|  4.5177e+01|   -9.091676|  1.0704e-05|    0.114982|
|        2570|  4.5177e+01|  4.5177e+01|   -9.097094|  1.0652e-05|    0.114993|
|        2580|  4.5177e+01|  4.5177e+01|   -9.102489|  1.0600e-05|    0.115005|
|        2590|  4.5177e+01|  4.5177e+01|   -9.107859|  1.0546e-05|    0.115016|
|        2600|  4.5177e+01|  4.5177e+01|   -9.113206|  1.0492e-05|    0.115027|
+-----------------------------------------------------------------------+
|        File Writing Summary       |              Filename             |
+-----------------------------------------------------------------------+
|SU2 binary restart                 |restart_flow_G5.dat                |
|Paraview                           |flow_G5.vtu                        |
|Paraview surface                   |surface_flow_G5.vtu                |
+-----------------------------------------------------------------------+
+-----------------------------------------------------------------------------+
|  Inner_Iter|     Min CFL|     Max CFL|      rms[P]|  Cauchy[CD]|          CD|
+-----------------------------------------------------------------------------+
|        2610|  4.5177e+01|  4.5177e+01|   -9.118529|  1.0438e-05|    0.115038|
|        2620|  4.5177e+01|  4.5177e+01|   -9.123825|  1.0383e-05|    0.115050|
|        2630|  4.5177e+01|  4.5177e+01|   -9.129094|  1.0327e-05|    0.115061|
|        2640|  4.5177e+01|  4.5177e+01|   -9.134341|  1.0271e-05|    0.115072|
|        2650|  4.5177e+01|  4.5177e+01|   -9.139572|  1.0214e-05|    0.115083|
|        2660|  4.5177e+01|  4.5177e+01|   -9.144788|  1.0156e-05|    0.115093|
|        2670|  4.5177e+01|  4.5177e+01|   -9.149989|  1.0098e-05|    0.115104|
|        2680|  9.3678e+00|  9.3678e+00|   -9.157748|  9.9104e-06|    0.115111|
|        2690|  4.8336e+00|  4.8336e+00|   -9.159721|  9.6868e-06|    0.115117|
|        2700|  2.9928e+01|  2.9928e+01|   -9.164389|  9.3611e-06|    0.115120|
|        2710|  1.5442e+01|  1.5442e+01|   -9.165698|  9.1071e-06|    0.115125|
|        2720|  7.9679e+00|  7.9679e+00|   -9.168098|  8.8608e-06|    0.115130|
|        2730|  4.9335e+01|  4.9335e+01|   -9.169941|  8.6077e-06|    0.115135|
|        2740|  2.5456e+01|  2.5456e+01|   -9.173192|  8.3090e-06|    0.115138|
|        2750|  4.3988e+01|  4.3988e+01|   -9.171281|  8.2088e-06|    0.115147|
|        2760|  4.3988e+01|  4.3988e+01|   -9.176460|  8.1465e-06|    0.115158|
|        2770|  4.3988e+01|  4.3988e+01|   -9.181534|  8.0872e-06|    0.115168|
|        2780|  4.3988e+01|  4.3988e+01|   -9.186549|  8.0308e-06|    0.115178|
|        2790|  4.3988e+01|  4.3988e+01|   -9.191414|  7.9734e-06|    0.115188|
|        2800|  4.3988e+01|  4.3988e+01|   -9.196338|  7.9118e-06|    0.115198|
+-----------------------------------------------------------------------+
|        File Writing Summary       |              Filename             |
+-----------------------------------------------------------------------+
|SU2 binary restart                 |restart_flow_G5.dat                |
|Paraview                           |flow_G5.vtu                        |
|Paraview surface                   |surface_flow_G5.vtu                |
+-----------------------------------------------------------------------+
+-----------------------------------------------------------------------------+
|  Inner_Iter|     Min CFL|     Max CFL|      rms[P]|  Cauchy[CD]|          CD|
+-----------------------------------------------------------------------------+
|        2810|  4.3988e+01|  4.3988e+01|   -9.201371|  7.8470e-06|    0.115207|
|        2820|  4.3988e+01|  4.3988e+01|   -9.206140|  7.7827e-06|    0.115217|
|        2830|  4.3988e+01|  4.3988e+01|   -9.210804|  7.7211e-06|    0.115227|
|        2840|  4.3988e+01|  4.3988e+01|   -9.215675|  7.6613e-06|    0.115236|
|        2850|  4.3988e+01|  4.3988e+01|   -9.220669|  7.6013e-06|    0.115246|
|        2860|  4.3988e+01|  4.3988e+01|   -9.225543|  7.5401e-06|    0.115256|
|        2870|  4.3988e+01|  4.3988e+01|   -9.230255|  7.4786e-06|    0.115265|
|        2880|  4.3988e+01|  4.3988e+01|   -9.234945|  7.4178e-06|    0.115274|
|        2890|  4.3988e+01|  4.3988e+01|   -9.239727|  7.3581e-06|    0.115284|
|        2900|  4.3988e+01|  4.3988e+01|   -9.244548|  7.2987e-06|    0.115293|
|        2910|  4.3988e+01|  4.3988e+01|   -9.249270|  7.2388e-06|    0.115302|
|        2920|  4.3988e+01|  4.3988e+01|   -9.253844|  7.1786e-06|    0.115311|
|        2930|  4.3988e+01|  4.3988e+01|   -9.258426|  7.2471e-06|    0.115320|
|        2940|  4.3988e+01|  4.3988e+01|   -9.263197|  7.3520e-06|    0.115329|
|        2950|  4.3988e+01|  4.3988e+01|   -9.268099|  7.5592e-06|    0.115338|
|        2960|  4.3988e+01|  4.3988e+01|   -9.272896|  7.6944e-06|    0.115347|
|        2970|  4.3988e+01|  4.3988e+01|   -9.277459|  7.8215e-06|    0.115355|
|        2980|  4.3988e+01|  4.3988e+01|   -9.281877|  7.9551e-06|    0.115364|
|        2990|  4.3988e+01|  4.3988e+01|   -9.286343|  8.1342e-06|    0.115373|
|        3000|  4.3988e+01|  4.3988e+01|   -9.290961|  8.1151e-06|    0.115381|
+-----------------------------------------------------------------------+
|        File Writing Summary       |              Filename             |
+-----------------------------------------------------------------------+
|SU2 binary restart                 |restart_flow_G5.dat                |
|Paraview                           |flow_G5.vtu                        |
|Paraview surface                   |surface_flow_G5.vtu                |
+-----------------------------------------------------------------------+
+-----------------------------------------------------------------------------+
|  Inner_Iter|     Min CFL|     Max CFL|      rms[P]|  Cauchy[CD]|          CD|
+-----------------------------------------------------------------------------+
|        3010|  4.3988e+01|  4.3988e+01|   -9.295677|  8.0583e-06|    0.115390|
|        3020|  4.3988e+01|  4.3988e+01|   -9.300363|  7.9987e-06|    0.115398|
|        3030|  4.3988e+01|  4.3988e+01|   -9.304935|  7.9363e-06|    0.115407|
|        3040|  4.3988e+01|  4.3988e+01|   -9.309408|  7.8749e-06|    0.115415|
|        3050|  4.3988e+01|  4.3988e+01|   -9.313859|  7.8177e-06|    0.115423|
|        3060|  4.3988e+01|  4.3988e+01|   -9.318354|  7.7637e-06|    0.115431|
|        3070|  4.3988e+01|  4.3988e+01|   -9.322897|  7.7094e-06|    0.115439|
|        3080|  4.3988e+01|  4.3988e+01|   -9.327444|  7.6527e-06|    0.115447|
|        3090|  4.3988e+01|  4.3988e+01|   -9.331947|  7.5944e-06|    0.115455|
|        3100|  4.3988e+01|  4.3988e+01|   -9.336398|  7.5367e-06|    0.115463|
|        3110|  4.3988e+01|  4.3988e+01|   -9.340827|  7.4804e-06|    0.115471|
|        3120|  4.3988e+01|  4.3988e+01|   -9.345271|  7.4250e-06|    0.115479|
|        3130|  4.3988e+01|  4.3988e+01|   -9.349736|  7.3692e-06|    0.115487|
|        3140|  4.3988e+01|  4.3988e+01|   -9.354194|  7.3129e-06|    0.115494|
|        3150|  4.3988e+01|  4.3988e+01|   -9.358615|  7.2568e-06|    0.115502|
|        3160|  4.3988e+01|  4.3988e+01|   -9.363000|  7.2016e-06|    0.115510|
|        3170|  4.3988e+01|  4.3988e+01|   -9.367371|  7.1471e-06|    0.115517|
|        3180|  4.3988e+01|  4.3988e+01|   -9.371754|  7.0928e-06|    0.115525|
|        3190|  4.3988e+01|  4.3988e+01|   -9.376147|  7.0383e-06|    0.115532|
|        3200|  4.3988e+01|  4.3988e+01|   -9.380527|  6.9838e-06|    0.115539|
+-----------------------------------------------------------------------+
|        File Writing Summary       |              Filename             |
+-----------------------------------------------------------------------+
|SU2 binary restart                 |restart_flow_G5.dat                |
|Paraview                           |flow_G5.vtu                        |
|Paraview surface                   |surface_flow_G5.vtu                |
+-----------------------------------------------------------------------+
+-----------------------------------------------------------------------------+
|  Inner_Iter|     Min CFL|     Max CFL|      rms[P]|  Cauchy[CD]|          CD|
+-----------------------------------------------------------------------------+
|        3210|  4.3988e+01|  4.3988e+01|   -9.384877|  6.9295e-06|    0.115547|
|        3220|  4.3988e+01|  4.3988e+01|   -9.389196|  6.8758e-06|    0.115554|
|        3230|  4.3988e+01|  4.3988e+01|   -9.393499|  6.8227e-06|    0.115561|
|        3240|  4.3988e+01|  4.3988e+01|   -9.397802|  6.7700e-06|    0.115568|
|        3250|  4.3988e+01|  4.3988e+01|   -9.402108|  6.7176e-06|    0.115575|
|        3260|  4.3988e+01|  4.3988e+01|   -9.406408|  6.6653e-06|    0.115582|
|        3270|  4.3988e+01|  4.3988e+01|   -9.410693|  6.6132e-06|    0.115589|
|        3280|  4.3988e+01|  4.3988e+01|   -9.414958|  6.5615e-06|    0.115596|
|        3290|  4.3988e+01|  4.3988e+01|   -9.419208|  6.5102e-06|    0.115603|
|        3300|  4.3988e+01|  4.3988e+01|   -9.423451|  6.4594e-06|    0.115610|
|        3310|  4.3988e+01|  4.3988e+01|   -9.427688|  6.4088e-06|    0.115616|
|        3320|  4.3988e+01|  4.3988e+01|   -9.431916|  6.3585e-06|    0.115623|
|        3330|  4.3988e+01|  4.3988e+01|   -9.436131|  6.3084e-06|    0.115630|
|        3340|  4.3988e+01|  4.3988e+01|   -9.440340|  6.2587e-06|    0.115636|
|        3350|  4.3988e+01|  4.3988e+01|   -9.444544|  6.2093e-06|    0.115643|
|        3360|  4.3988e+01|  4.3988e+01|   -9.448742|  6.1603e-06|    0.115649|
|        3370|  4.3988e+01|  4.3988e+01|   -9.452933|  6.1115e-06|    0.115656|
|        3380|  4.3988e+01|  4.3988e+01|   -9.457116|  6.0630e-06|    0.115662|
|        3390|  4.3988e+01|  4.3988e+01|   -9.461292|  6.0149e-06|    0.115668|
|        3400|  4.3988e+01|  4.3988e+01|   -9.465462|  5.9672e-06|    0.115675|
+-----------------------------------------------------------------------+
|        File Writing Summary       |              Filename             |
+-----------------------------------------------------------------------+
|SU2 binary restart                 |restart_flow_G5.dat                |
|Paraview                           |flow_G5.vtu                        |
|Paraview surface                   |surface_flow_G5.vtu                |
+-----------------------------------------------------------------------+
+-----------------------------------------------------------------------------+
|  Inner_Iter|     Min CFL|     Max CFL|      rms[P]|  Cauchy[CD]|          CD|
+-----------------------------------------------------------------------------+
|        3410|  4.3988e+01|  4.3988e+01|   -9.469626|  5.9198e-06|    0.115681|
|        3420|  4.3988e+01|  4.3988e+01|   -9.473783|  5.8728e-06|    0.115687|
|        3430|  4.3988e+01|  4.3988e+01|   -9.477934|  5.8260e-06|    0.115693|
|        3440|  4.3988e+01|  4.3988e+01|   -9.482077|  5.7795e-06|    0.115699|
|        3450|  4.3988e+01|  4.3988e+01|   -9.486214|  5.7334e-06|    0.115705|
|        3460|  4.3988e+01|  4.3988e+01|   -9.490348|  5.6876e-06|    0.115711|
|        3470|  4.3988e+01|  4.3988e+01|   -9.494481|  5.6421e-06|    0.115717|
|        3480|  4.3988e+01|  4.3988e+01|   -9.498610|  5.5969e-06|    0.115723|
|        3490|  4.3988e+01|  4.3988e+01|   -9.502731|  5.5520e-06|    0.115729|
|        3500|  4.3988e+01|  4.3988e+01|   -9.506842|  5.5075e-06|    0.115734|
|        3510|  4.3988e+01|  4.3988e+01|   -9.510944|  5.4632e-06|    0.115740|
|        3520|  4.3988e+01|  4.3988e+01|   -9.515040|  5.4193e-06|    0.115746|
|        3530|  4.3988e+01|  4.3988e+01|   -9.519134|  5.3758e-06|    0.115752|
|        3540|  4.3988e+01|  4.3988e+01|   -9.523227|  5.3325e-06|    0.115757|
|        3550|  4.3988e+01|  4.3988e+01|   -9.527316|  5.2897e-06|    0.115763|
|        3560|  4.3988e+01|  4.3988e+01|   -9.531399|  5.2471e-06|    0.115768|
|        3570|  4.3988e+01|  4.3988e+01|   -9.535472|  5.2049e-06|    0.115774|
|        3580|  4.3988e+01|  4.3988e+01|   -9.539535|  5.1630e-06|    0.115779|
|        3590|  4.3988e+01|  4.3988e+01|   -9.543591|  5.1214e-06|    0.115784|
|        3600|  4.3988e+01|  4.3988e+01|   -9.547641|  5.0801e-06|    0.115790|
+-----------------------------------------------------------------------+
|        File Writing Summary       |              Filename             |
+-----------------------------------------------------------------------+
|SU2 binary restart                 |restart_flow_G5.dat                |
|Paraview                           |flow_G5.vtu                        |
|Paraview surface                   |surface_flow_G5.vtu                |
+-----------------------------------------------------------------------+
+-----------------------------------------------------------------------------+
|  Inner_Iter|     Min CFL|     Max CFL|      rms[P]|  Cauchy[CD]|          CD|
+-----------------------------------------------------------------------------+
|        3610|  4.3988e+01|  4.3988e+01|   -9.551686|  5.0392e-06|    0.115795|
|        3620|  4.3988e+01|  4.3988e+01|   -9.555728|  4.9985e-06|    0.115800|
|        3630|  4.3988e+01|  4.3988e+01|   -9.559765|  4.9581e-06|    0.115805|
|        3640|  4.3988e+01|  4.3988e+01|   -9.563797|  4.9180e-06|    0.115811|
|        3650|  4.3988e+01|  4.3988e+01|   -9.567822|  4.8781e-06|    0.115816|
|        3660|  4.3988e+01|  4.3988e+01|   -9.571843|  4.8386e-06|    0.115821|
|        3670|  4.3988e+01|  4.3988e+01|   -9.575858|  4.7993e-06|    0.115826|
|        3680|  4.3988e+01|  4.3988e+01|   -9.579869|  4.7604e-06|    0.115831|
|        3690|  4.3988e+01|  4.3988e+01|   -9.583879|  4.7218e-06|    0.115836|
|        3700|  4.3988e+01|  4.3988e+01|   -9.587887|  4.6834e-06|    0.115841|
|        3710|  4.3988e+01|  4.3988e+01|   -9.591891|  4.6454e-06|    0.115846|
|        3720|  4.3988e+01|  4.3988e+01|   -9.595891|  4.6076e-06|    0.115850|
|        3730|  4.3988e+01|  4.3988e+01|   -9.599885|  4.5702e-06|    0.115855|
|        3740|  4.3988e+01|  4.3988e+01|   -9.603874|  4.5330e-06|    0.115860|
|        3750|  4.3988e+01|  4.3988e+01|   -9.607860|  4.4961e-06|    0.115865|
|        3760|  4.3988e+01|  4.3988e+01|   -9.611846|  4.4595e-06|    0.115869|
|        3770|  4.3988e+01|  4.3988e+01|   -9.615828|  4.4231e-06|    0.115874|
|        3780|  4.3988e+01|  4.3988e+01|   -9.619804|  4.3870e-06|    0.115879|
|        3790|  4.3988e+01|  4.3988e+01|   -9.623775|  4.3512e-06|    0.115883|
|        3800|  4.3988e+01|  4.3988e+01|   -9.627742|  4.3156e-06|    0.115888|
+-----------------------------------------------------------------------+
|        File Writing Summary       |              Filename             |
+-----------------------------------------------------------------------+
|SU2 binary restart                 |restart_flow_G5.dat                |
|Paraview                           |flow_G5.vtu                        |
|Paraview surface                   |surface_flow_G5.vtu                |
+-----------------------------------------------------------------------+
+-----------------------------------------------------------------------------+
|  Inner_Iter|     Min CFL|     Max CFL|      rms[P]|  Cauchy[CD]|          CD|
+-----------------------------------------------------------------------------+
|        3810|  4.3988e+01|  4.3988e+01|   -9.631704|  4.2802e-06|    0.115892|
|        3820|  4.3988e+01|  4.3988e+01|   -9.635665|  4.2452e-06|    0.115897|
|        3830|  4.3988e+01|  4.3988e+01|   -9.639624|  4.2104e-06|    0.115901|
|        3840|  4.3988e+01|  4.3988e+01|   -9.643582|  4.1758e-06|    0.115905|
|        3850|  4.3988e+01|  4.3988e+01|   -9.647537|  4.1416e-06|    0.115910|
|        3860|  4.3988e+01|  4.3988e+01|   -9.651486|  4.1076e-06|    0.115914|
|        3870|  4.3988e+01|  4.3988e+01|   -9.655428|  4.0739e-06|    0.115918|
|        3880|  4.3988e+01|  4.3988e+01|   -9.659365|  4.0405e-06|    0.115922|
|        3890|  4.3988e+01|  4.3988e+01|   -9.663300|  4.0073e-06|    0.115927|
|        3900|  4.3988e+01|  4.3988e+01|   -9.667233|  3.9744e-06|    0.115931|
|        3910|  4.3988e+01|  4.3988e+01|   -9.671164|  3.9418e-06|    0.115935|
|        3920|  4.3988e+01|  4.3988e+01|   -9.675090|  3.9094e-06|    0.115939|
|        3930|  4.3988e+01|  4.3988e+01|   -9.679012|  3.8772e-06|    0.115943|
|        3940|  4.3988e+01|  4.3988e+01|   -9.682930|  3.8453e-06|    0.115947|
|        3950|  4.3988e+01|  4.3988e+01|   -9.686843|  3.8136e-06|    0.115951|
|        3960|  4.3988e+01|  4.3988e+01|   -9.690750|  3.7821e-06|    0.115955|
|        3970|  4.3988e+01|  4.3988e+01|   -9.694653|  3.7509e-06|    0.115959|
|        3980|  4.3988e+01|  4.3988e+01|   -9.698553|  3.7199e-06|    0.115963|
|        3990|  4.3988e+01|  4.3988e+01|   -9.702451|  3.6891e-06|    0.115967|
|        4000|  4.3988e+01|  4.3988e+01|   -9.706346|  3.6585e-06|    0.115971|
+-----------------------------------------------------------------------+
|        File Writing Summary       |              Filename             |
+-----------------------------------------------------------------------+
|SU2 binary restart                 |restart_flow_G5.dat                |
|Paraview                           |flow_G5.vtu                        |
|Paraview surface                   |surface_flow_G5.vtu                |
+-----------------------------------------------------------------------+
+-----------------------------------------------------------------------------+
|  Inner_Iter|     Min CFL|     Max CFL|      rms[P]|  Cauchy[CD]|          CD|
+-----------------------------------------------------------------------------+
|        4010|  4.3988e+01|  4.3988e+01|   -9.710237|  3.6282e-06|    0.115974|
|        4020|  4.3988e+01|  4.3988e+01|   -9.714123|  3.5980e-06|    0.115978|
|        4030|  4.3988e+01|  4.3988e+01|   -9.718004|  3.5682e-06|    0.115982|
|        4040|  4.3988e+01|  4.3988e+01|   -9.721881|  3.5385e-06|    0.115986|
|        4050|  4.3988e+01|  4.3988e+01|   -9.725756|  3.5091e-06|    0.115989|
|        4060|  4.3988e+01|  4.3988e+01|   -9.729630|  3.4799e-06|    0.115993|
|        4070|  4.3988e+01|  4.3988e+01|   -9.733500|  3.4509e-06|    0.115997|
|        4080|  4.3988e+01|  4.3988e+01|   -9.737365|  3.4222e-06|    0.116000|
|        4090|  4.3988e+01|  4.3988e+01|   -9.741225|  3.3936e-06|    0.116004|
|        4100|  4.3988e+01|  4.3988e+01|   -9.745079|  3.3653e-06|    0.116007|
|        4110|  4.3988e+01|  4.3988e+01|   -9.748930|  3.3372e-06|    0.116011|
|        4120|  4.3988e+01|  4.3988e+01|   -9.752779|  3.3094e-06|    0.116014|
|        4130|  4.3988e+01|  4.3988e+01|   -9.756625|  3.2817e-06|    0.116018|
|        4140|  4.3988e+01|  4.3988e+01|   -9.760467|  3.2543e-06|    0.116021|
|        4150|  4.3988e+01|  4.3988e+01|   -9.764306|  3.2271e-06|    0.116024|
|        4160|  4.3988e+01|  4.3988e+01|   -9.768141|  3.2001e-06|    0.116028|
|        4170|  4.3988e+01|  4.3988e+01|   -9.771970|  3.1734e-06|    0.116031|
|        4180|  4.3988e+01|  4.3988e+01|   -9.775797|  3.1469e-06|    0.116034|
|        4190|  4.3988e+01|  4.3988e+01|   -9.779621|  3.1205e-06|    0.116038|
|        4200|  4.3988e+01|  4.3988e+01|   -9.783443|  3.0944e-06|    0.116041|
+-----------------------------------------------------------------------+
|        File Writing Summary       |              Filename             |
+-----------------------------------------------------------------------+
|SU2 binary restart                 |restart_flow_G5.dat                |
|Paraview                           |flow_G5.vtu                        |
|Paraview surface                   |surface_flow_G5.vtu                |
+-----------------------------------------------------------------------+
+-----------------------------------------------------------------------------+
|  Inner_Iter|     Min CFL|     Max CFL|      rms[P]|  Cauchy[CD]|          CD|
+-----------------------------------------------------------------------------+
|        4210|  4.3988e+01|  4.3988e+01|   -9.787261|  3.0686e-06|    0.116044|
|        4220|  4.3988e+01|  4.3988e+01|   -9.791075|  3.0429e-06|    0.116047|
|        4230|  4.3988e+01|  4.3988e+01|   -9.794887|  3.0174e-06|    0.116050|
|        4240|  4.3988e+01|  4.3988e+01|   -9.798697|  2.9922e-06|    0.116054|
|        4250|  4.3988e+01|  4.3988e+01|   -9.802504|  2.9671e-06|    0.116057|
|        4260|  4.3988e+01|  4.3988e+01|   -9.806310|  2.9423e-06|    0.116060|
|        4270|  4.3988e+01|  4.3988e+01|   -9.810113|  2.9177e-06|    0.116063|
|        4280|  4.3988e+01|  4.3988e+01|   -9.813914|  2.8932e-06|    0.116066|
|        4290|  4.3988e+01|  4.3988e+01|   -9.817711|  2.8690e-06|    0.116069|
|        4300|  4.3988e+01|  4.3988e+01|   -9.821503|  2.8450e-06|    0.116072|
|        4310|  4.3988e+01|  4.3988e+01|   -9.825295|  2.8212e-06|    0.116075|
|        4320|  4.3988e+01|  4.3988e+01|   -9.829091|  2.7976e-06|    0.116078|
|        4330|  4.3988e+01|  4.3988e+01|   -9.832890|  2.7741e-06|    0.116081|
|        4340|  4.3988e+01|  4.3988e+01|   -9.836690|  2.7509e-06|    0.116084|
|        4350|  4.3988e+01|  4.3988e+01|   -9.840485|  2.7278e-06|    0.116086|
|        4360|  4.3988e+01|  4.3988e+01|   -9.844274|  2.7050e-06|    0.116089|
|        4370|  4.3988e+01|  4.3988e+01|   -9.848056|  2.6823e-06|    0.116092|
|        4380|  4.3988e+01|  4.3988e+01|   -9.851833|  2.6598e-06|    0.116095|
|        4390|  4.3988e+01|  4.3988e+01|   -9.855609|  2.6375e-06|    0.116098|
|        4400|  4.3988e+01|  4.3988e+01|   -9.859390|  2.6153e-06|    0.116100|
+-----------------------------------------------------------------------+
|        File Writing Summary       |              Filename             |
+-----------------------------------------------------------------------+
|SU2 binary restart                 |restart_flow_G5.dat                |
|Paraview                           |flow_G5.vtu                        |
|Paraview surface                   |surface_flow_G5.vtu                |
+-----------------------------------------------------------------------+
+-----------------------------------------------------------------------------+
|  Inner_Iter|     Min CFL|     Max CFL|      rms[P]|  Cauchy[CD]|          CD|
+-----------------------------------------------------------------------------+
|        4410|  4.3988e+01|  4.3988e+01|   -9.863176|  2.5934e-06|    0.116103|
|        4420|  4.3988e+01|  4.3988e+01|   -9.866962|  2.5716e-06|    0.116106|
|        4430|  4.3988e+01|  4.3988e+01|   -9.870743|  2.5500e-06|    0.116108|
|        4440|  4.3988e+01|  4.3988e+01|   -9.874517|  2.5286e-06|    0.116111|
|        4450|  4.3988e+01|  4.3988e+01|   -9.878285|  2.5073e-06|    0.116114|
|        4460|  4.3988e+01|  4.3988e+01|   -9.882050|  2.4863e-06|    0.116116|
|        4470|  4.3988e+01|  4.3988e+01|   -9.885814|  2.4654e-06|    0.116119|
|        4480|  4.3988e+01|  4.3988e+01|   -9.889579|  2.4447e-06|    0.116121|
|        4490|  4.3988e+01|  4.3988e+01|   -9.893343|  2.4242e-06|    0.116124|
|        4500|  4.3988e+01|  4.3988e+01|   -9.897104|  2.4038e-06|    0.116126|
|        4510|  4.3988e+01|  4.3988e+01|   -9.900862|  2.3837e-06|    0.116129|
|        4520|  4.3988e+01|  4.3988e+01|   -9.904617|  2.3636e-06|    0.116131|
|        4530|  4.3988e+01|  4.3988e+01|   -9.908370|  2.3438e-06|    0.116134|
|        4540|  4.3988e+01|  4.3988e+01|   -9.912122|  2.3241e-06|    0.116136|
|        4550|  4.3988e+01|  4.3988e+01|   -9.915873|  2.3047e-06|    0.116139|
|        4560|  4.3988e+01|  4.3988e+01|   -9.919622|  2.2853e-06|    0.116141|
|        4570|  4.3988e+01|  4.3988e+01|   -9.923370|  2.2662e-06|    0.116144|
|        4580|  4.3988e+01|  4.3988e+01|   -9.927117|  2.2472e-06|    0.116146|
|        4590|  4.3988e+01|  4.3988e+01|   -9.930864|  2.2284e-06|    0.116148|
|        4600|  4.3988e+01|  4.3988e+01|   -9.934609|  2.2097e-06|    0.116151|
+-----------------------------------------------------------------------+
|        File Writing Summary       |              Filename             |
+-----------------------------------------------------------------------+
|SU2 binary restart                 |restart_flow_G5.dat                |
|Paraview                           |flow_G5.vtu                        |
|Paraview surface                   |surface_flow_G5.vtu                |
+-----------------------------------------------------------------------+
+-----------------------------------------------------------------------------+
|  Inner_Iter|     Min CFL|     Max CFL|      rms[P]|  Cauchy[CD]|          CD|
+-----------------------------------------------------------------------------+
|        4610|  4.3988e+01|  4.3988e+01|   -9.938355|  2.1912e-06|    0.116153|
|        4620|  4.3988e+01|  4.3988e+01|   -9.942100|  2.1729e-06|    0.116155|
|        4630|  4.3988e+01|  4.3988e+01|   -9.945845|  2.1547e-06|    0.116157|
|        4640|  4.3988e+01|  4.3988e+01|   -9.949588|  2.1367e-06|    0.116160|
|        4650|  4.3988e+01|  4.3988e+01|   -9.953331|  2.1188e-06|    0.116162|
|        4660|  4.3988e+01|  4.3988e+01|   -9.957074|  2.1011e-06|    0.116164|
|        4670|  4.3988e+01|  4.3988e+01|   -9.960817|  2.0836e-06|    0.116166|
|        4680|  4.3988e+01|  4.3988e+01|   -9.964560|  2.0662e-06|    0.116168|
|        4690|  4.3988e+01|  4.3988e+01|   -9.968302|  2.0490e-06|    0.116171|
|        4700|  4.3988e+01|  4.3988e+01|   -9.972045|  2.0319e-06|    0.116173|
|        4710|  4.3988e+01|  4.3988e+01|   -9.975789|  2.0149e-06|    0.116175|
|        4720|  4.3988e+01|  4.3988e+01|   -9.979533|  1.9981e-06|    0.116177|
|        4730|  4.3988e+01|  4.3988e+01|   -9.983277|  1.9815e-06|    0.116179|
|        4740|  4.3988e+01|  4.3988e+01|   -9.987020|  1.9649e-06|    0.116181|
|        4750|  4.3988e+01|  4.3988e+01|   -9.990764|  1.9486e-06|    0.116183|
|        4760|  4.3988e+01|  4.3988e+01|   -9.994508|  1.9324e-06|    0.116185|
|        4770|  4.3988e+01|  4.3988e+01|   -9.998253|  1.9163e-06|    0.116187|
|        4780|  4.3988e+01|  4.3988e+01|  -10.001997|  1.9003e-06|    0.116189|
|        4790|  4.3988e+01|  4.3988e+01|  -10.005742|  1.8845e-06|    0.116191|
|        4800|  4.3988e+01|  4.3988e+01|  -10.009486|  1.8688e-06|    0.116193|
+-----------------------------------------------------------------------+
|        File Writing Summary       |              Filename             |
+-----------------------------------------------------------------------+
|SU2 binary restart                 |restart_flow_G5.dat                |
|Paraview                           |flow_G5.vtu                        |
|Paraview surface                   |surface_flow_G5.vtu                |
+-----------------------------------------------------------------------+
+-----------------------------------------------------------------------------+
|  Inner_Iter|     Min CFL|     Max CFL|      rms[P]|  Cauchy[CD]|          CD|
+-----------------------------------------------------------------------------+
|        4810|  4.3988e+01|  4.3988e+01|  -10.013230|  1.8533e-06|    0.116195|
|        4820|  4.3988e+01|  4.3988e+01|  -10.016973|  1.8379e-06|    0.116197|
|        4830|  4.3988e+01|  4.3988e+01|  -10.020717|  1.8226e-06|    0.116199|
|        4840|  4.3988e+01|  4.3988e+01|  -10.024460|  1.8074e-06|    0.116201|
|        4850|  4.3988e+01|  4.3988e+01|  -10.028204|  1.7924e-06|    0.116203|
|        4860|  4.3988e+01|  4.3988e+01|  -10.031947|  1.7775e-06|    0.116204|
|        4870|  4.3988e+01|  4.3988e+01|  -10.035690|  1.7627e-06|    0.116206|
|        4880|  4.3988e+01|  4.3988e+01|  -10.039432|  1.7481e-06|    0.116208|
|        4890|  4.3988e+01|  4.3988e+01|  -10.043174|  1.7335e-06|    0.116210|
|        4900|  4.3988e+01|  4.3988e+01|  -10.046915|  1.7191e-06|    0.116212|
|        4910|  4.3988e+01|  4.3988e+01|  -10.050657|  1.7048e-06|    0.116214|
|        4920|  4.3988e+01|  4.3988e+01|  -10.054398|  1.6906e-06|    0.116215|
|        4930|  4.3988e+01|  4.3988e+01|  -10.058140|  1.6766e-06|    0.116217|
|        4940|  4.3988e+01|  4.3988e+01|  -10.061880|  1.6626e-06|    0.116219|
|        4950|  4.3988e+01|  4.3988e+01|  -10.065619|  1.6488e-06|    0.116221|
|        4960|  4.3988e+01|  4.3988e+01|  -10.069358|  1.6351e-06|    0.116222|
|        4970|  4.3988e+01|  4.3988e+01|  -10.073096|  1.6215e-06|    0.116224|
|        4980|  4.3988e+01|  4.3988e+01|  -10.076834|  1.6080e-06|    0.116226|
|        4990|  4.3988e+01|  4.3988e+01|  -10.080571|  1.5947e-06|    0.116227|
|        5000|  4.3988e+01|  4.3988e+01|  -10.084308|  1.5814e-06|    0.116229|
+-----------------------------------------------------------------------+
|        File Writing Summary       |              Filename             |
+-----------------------------------------------------------------------+
|SU2 binary restart                 |restart_flow_G5.dat                |
|Paraview                           |flow_G5.vtu                        |
|Paraview surface                   |surface_flow_G5.vtu                |
+-----------------------------------------------------------------------+
+-----------------------------------------------------------------------------+
|  Inner_Iter|     Min CFL|     Max CFL|      rms[P]|  Cauchy[CD]|          CD|
+-----------------------------------------------------------------------------+
|        5010|  4.3988e+01|  4.3988e+01|  -10.088043|  1.5683e-06|    0.116231|
|        5020|  4.3988e+01|  4.3988e+01|  -10.091779|  1.5552e-06|    0.116232|
|        5030|  4.3988e+01|  4.3988e+01|  -10.095513|  1.5423e-06|    0.116234|
|        5040|  4.3988e+01|  4.3988e+01|  -10.099248|  1.5295e-06|    0.116235|
|        5050|  4.3988e+01|  4.3988e+01|  -10.102982|  1.5168e-06|    0.116237|
|        5060|  4.3988e+01|  4.3988e+01|  -10.106715|  1.5041e-06|    0.116239|
|        5070|  4.3988e+01|  4.3988e+01|  -10.110448|  1.4916e-06|    0.116240|
|        5080|  4.3988e+01|  4.3988e+01|  -10.114180|  1.4792e-06|    0.116242|
|        5090|  4.3988e+01|  4.3988e+01|  -10.117911|  1.4669e-06|    0.116243|
|        5100|  4.3988e+01|  4.3988e+01|  -10.121641|  1.4548e-06|    0.116245|
|        5110|  4.3988e+01|  4.3988e+01|  -10.125370|  1.4427e-06|    0.116246|
|        5120|  4.3988e+01|  4.3988e+01|  -10.129099|  1.4307e-06|    0.116248|
|        5130|  4.3988e+01|  4.3988e+01|  -10.132828|  1.4188e-06|    0.116249|
|        5140|  4.3988e+01|  4.3988e+01|  -10.136555|  1.4070e-06|    0.116251|
|        5150|  4.3988e+01|  4.3988e+01|  -10.140282|  1.3953e-06|    0.116252|
|        5160|  4.3988e+01|  4.3988e+01|  -10.144008|  1.3837e-06|    0.116254|
|        5170|  4.3988e+01|  4.3988e+01|  -10.147733|  1.3722e-06|    0.116255|
|        5180|  4.3988e+01|  4.3988e+01|  -10.151459|  1.3608e-06|    0.116257|
|        5190|  4.3988e+01|  4.3988e+01|  -10.155184|  1.3495e-06|    0.116258|
|        5200|  4.3988e+01|  4.3988e+01|  -10.158908|  1.3382e-06|    0.116259|
+-----------------------------------------------------------------------+
|        File Writing Summary       |              Filename             |
+-----------------------------------------------------------------------+
|SU2 binary restart                 |restart_flow_G5.dat                |
|Paraview                           |flow_G5.vtu                        |
|Paraview surface                   |surface_flow_G5.vtu                |
+-----------------------------------------------------------------------+
+-----------------------------------------------------------------------------+
|  Inner_Iter|     Min CFL|     Max CFL|      rms[P]|  Cauchy[CD]|          CD|
+-----------------------------------------------------------------------------+
|        5210|  4.3988e+01|  4.3988e+01|  -10.162633|  1.3271e-06|    0.116261|
|        5220|  4.3988e+01|  4.3988e+01|  -10.166356|  1.3161e-06|    0.116262|
|        5230|  4.3988e+01|  4.3988e+01|  -10.170079|  1.3051e-06|    0.116264|
|        5240|  4.3988e+01|  4.3988e+01|  -10.173801|  1.2943e-06|    0.116265|
|        5250|  4.3988e+01|  4.3988e+01|  -10.177522|  1.2835e-06|    0.116266|
|        5260|  4.3988e+01|  4.3988e+01|  -10.181243|  1.2728e-06|    0.116268|
|        5270|  4.3988e+01|  4.3988e+01|  -10.184963|  1.2622e-06|    0.116269|
|        5280|  4.3988e+01|  4.3988e+01|  -10.188682|  1.2517e-06|    0.116270|
|        5290|  4.3988e+01|  4.3988e+01|  -10.192401|  1.2413e-06|    0.116272|
|        5300|  4.3988e+01|  4.3988e+01|  -10.196119|  1.2310e-06|    0.116273|
|        5310|  4.3988e+01|  4.3988e+01|  -10.199835|  1.2207e-06|    0.116274|
|        5320|  4.3988e+01|  4.3988e+01|  -10.203552|  1.2106e-06|    0.116275|
|        5330|  4.3988e+01|  4.3988e+01|  -10.207267|  1.2005e-06|    0.116277|
|        5340|  4.3988e+01|  4.3988e+01|  -10.210982|  1.1905e-06|    0.116278|
|        5350|  4.3988e+01|  4.3988e+01|  -10.214695|  1.1806e-06|    0.116279|
|        5360|  4.3988e+01|  4.3988e+01|  -10.218408|  1.1708e-06|    0.116280|
|        5370|  4.3988e+01|  4.3988e+01|  -10.222120|  1.1610e-06|    0.116282|
|        5380|  4.3988e+01|  4.3988e+01|  -10.225831|  1.1513e-06|    0.116283|
|        5390|  4.3988e+01|  4.3988e+01|  -10.229541|  1.1417e-06|    0.116284|
|        5400|  4.3988e+01|  4.3988e+01|  -10.233250|  1.1322e-06|    0.116285|
+-----------------------------------------------------------------------+
|        File Writing Summary       |              Filename             |
+-----------------------------------------------------------------------+
|SU2 binary restart                 |restart_flow_G5.dat                |
|Paraview                           |flow_G5.vtu                        |
|Paraview surface                   |surface_flow_G5.vtu                |
+-----------------------------------------------------------------------+
+-----------------------------------------------------------------------------+
|  Inner_Iter|     Min CFL|     Max CFL|      rms[P]|  Cauchy[CD]|          CD|
+-----------------------------------------------------------------------------+
|        5410|  4.3988e+01|  4.3988e+01|  -10.236958|  1.1228e-06|    0.116286|
|        5420|  4.3988e+01|  4.3988e+01|  -10.240664|  1.1134e-06|    0.116288|
|        5430|  4.3988e+01|  4.3988e+01|  -10.244371|  1.1041e-06|    0.116289|
|        5440|  4.3988e+01|  4.3988e+01|  -10.248077|  1.0949e-06|    0.116290|
|        5450|  4.3988e+01|  4.3988e+01|  -10.251781|  1.0858e-06|    0.116291|
|        5460|  4.3988e+01|  4.3988e+01|  -10.255483|  1.0767e-06|    0.116292|
|        5470|  4.3988e+01|  4.3988e+01|  -10.259184|  1.0677e-06|    0.116293|
|        5480|  4.3988e+01|  4.3988e+01|  -10.262884|  1.0588e-06|    0.116294|
|        5490|  4.3988e+01|  4.3988e+01|  -10.266584|  1.0500e-06|    0.116295|
|        5500|  4.3988e+01|  4.3988e+01|  -10.270282|  1.0412e-06|    0.116297|
|        5510|  4.3988e+01|  4.3988e+01|  -10.273980|  1.0325e-06|    0.116298|
|        5520|  4.3988e+01|  4.3988e+01|  -10.277677|  1.0239e-06|    0.116299|
|        5530|  4.3988e+01|  4.3988e+01|  -10.281372|  1.0153e-06|    0.116300|
|        5540|  4.3988e+01|  4.3988e+01|  -10.285068|  1.0069e-06|    0.116301|
|        5549|  4.3988e+01|  4.3988e+01|  -10.288393|  9.9929e-07|    0.116302|

----------------------------- Solver Exit -------------------------------
All convergence criteria satisfied.
+-----------------------------------------------------------------------+
|      Convergence Field     |     Value    |   Criterion  |  Converged |
+-----------------------------------------------------------------------+
|                      rms[P]|      -10.2884|          < -9|         Yes|
|                  Cauchy[CD]|   9.99295e-07|       < 1e-06|         Yes|
+-----------------------------------------------------------------------+
-------------------------------------------------------------------------
+-----------------------------------------------------------------------+
|        File Writing Summary       |              Filename             |
+-----------------------------------------------------------------------+
|SU2 binary restart                 |restart_flow_G5.dat                |
|Paraview                           |flow_G5.vtu                        |
|Paraview surface                   |surface_flow_G5.vtu                |
+-----------------------------------------------------------------------+

------------------------- Solver Postprocessing -------------------------
Deleted CNumerics container.
Deleted CIntegration container.
Deleted CSolver container.
Deleted CIteration container.
Deleted CInterface container.
Deleted CGeometry container.
Deleted CFreeFormDefBox class.
Deleted CSurfaceMovement class.
Deleted CVolumetricMovement class.
Deleted CConfig container.
Deleted nInst container.
Deleted COutput class.
-------------------------------------------------------------------------

------------------------- Exit Success (SU2_CFD) ------------------------

