
-------------------------------------------------------------------------
|    ___ _   _ ___                                                      |
|   / __| | | |_  )   Release 7.4.0 "Blackbird"                         |
|   \__ \ |_| |/ /                                                      |
|   |___/\___//___|   Suite (Computational Fluid Dynamics Code)         |
|                                                                       |
-------------------------------------------------------------------------
| SU2 Project Website: https://su2code.github.io                        |
|                                                                       |
| The SU2 Project is maintained by the SU2 Foundation                   |
| (http://su2foundation.org)                                            |
-------------------------------------------------------------------------
| Copyright 2012-2022, SU2 Contributors                                 |
|                                                                       |
| SU2 is free software; you can redistribute it and/or                  |
| modify it under the terms of the GNU Lesser General Public            |
| License as published by the Free Software Foundation; either          |
| version 2.1 of the License, or (at your option) any later version.    |
|                                                                       |
| SU2 is distributed in the hope that it will be useful,                |
| but WITHOUT ANY WARRANTY; without even the implied warranty of        |
| MERCHANTABILITY or FITNESS FOR A PARTICULAR PURPOSE. See the GNU      |
| Lesser General Public License for more details.                       |
|                                                                       |
| You should have received a copy of the GNU Lesser General Public      |
| License along with SU2. If not, see <http://www.gnu.org/licenses/>.   |
-------------------------------------------------------------------------

Parsing config file for zone 0

----------------- Physical Case Definition ( Zone 0 ) -------------------
Incompressible RANS equations.
Turbulence model: Spalart-Allmaras-noft2
Hybrid RANS/LES: No Hybrid RANS/LES
Reading and writing binary SU2 native restart files.
Read flow solution from: ../../../O1/caseG6/cfdG6/restart_flow_G6.dat.
Non-Dimensional simulation using intialization values.
The reference area is 1 m^2.
The semi-span will be computed using the max y(3D) value.
The reference length is 1.00898 m.
Reference origin for moment evaluation is (-0.756, 0, 0).
Surface(s) where the force coefficients are evaluated: AIRFOIL.

Surface(s) plotted in the output file: AIRFOIL.
Input mesh file name: ../meshG6/meshG6.su2

--------------- Space Numerical Integration ( Zone 0 ) ------------------
Flux difference splitting (FDS) upwind scheme for the flow inviscid terms.
Second order integration in space, with slope limiter.
Venkatakrishnan slope-limiting method, with constant: 0.055.
The reference element size is: 1. 
Average of gradients with correction (viscous flow terms).
Average of gradients with correction (viscous turbulence terms).
Gradient for upwind reconstruction: unweighted Least-Squares.
Gradient for viscous and source terms: Green-Gauss.

--------------- Time Numerical Integration  ( Zone 0 ) ------------------
Local time stepping (steady state simulation).
Euler implicit method for the flow equations.
FGMRES is used for solving the linear system.
Using a ILU(0) preconditioning.
Convergence criteria of the linear solver: 1e-06.
Max number of linear iterations: 10.
CFL adaptation. Factor down: 0.1, factor up: 1.2,
                lower limit: 1, upper limit: 1000,
                acceptable linear residual: 0.001.
Courant-Friedrichs-Lewy number:        2
Euler implicit time integration for the turbulence model.

------------------ Convergence Criteria  ( Zone 0 ) ---------------------
Maximum number of solver subiterations: 20000.
Begin convergence monitoring at iteration 10.
Residual minimum value: 1e-9.
Cauchy series min. value: 1e-06.
Number of Cauchy elements: 250.
Begin windowed time average at iteration 0.

-------------------- Output Information ( Zone 0 ) ----------------------
File writing frequency: 
+------------------------------------+
|                     File| Frequency|
+------------------------------------+
|                  RESTART|       200|
|                 PARAVIEW|       200|
|         SURFACE_PARAVIEW|       200|
+------------------------------------+
Writing the convergence history file every 1 inner iterations.
Writing the screen convergence history every 10 inner iterations.
The tabular file format is CSV (.csv).
Convergence history file name: history_G6.
Forces breakdown file name: forces_breakdown.dat.
Surface file name: surface_flow_G6.
Volume file name: flow_G6.
Restart file name: restart_flow_G6.dat.

------------- Config File Boundary Information ( Zone 0 ) ---------------
+-----------------------------------------------------------------------+
|                        Marker Type|                        Marker Name|
+-----------------------------------------------------------------------+
|                          Far-field|                           FARFIELD|
+-----------------------------------------------------------------------+
|                     Heat flux wall|                            AIRFOIL|
+-----------------------------------------------------------------------+

-------------------- Output Preprocessing ( Zone 0 ) --------------------

WARNING: SURFACE_PRESSURE_DROP can only be computed for at least 2 surfaces (outlet, inlet, ...)

Screen output fields: INNER_ITER, MIN_CFL, MAX_CFL, RMS_PRESSURE, CAUCHY_DRAG, DRAG
History output group(s): INNER_ITER, MIN_CFL, MAX_CFL, RMS_RES, LIFT, DRAG, MOMENT_Z, CAUCHY
Convergence field(s): RMS_PRESSURE, DRAG
Warning: No (valid) fields chosen for time convergence monitoring. Time convergence monitoring inactive.
Volume output fields: COORDINATES, SOLUTION, PRIMITIVE, RESIDUAL, MESH_QUALITY

------------------- Geometry Preprocessing ( Zone 0 ) -------------------
Two dimensional problem.
287404 grid points before partitioning.
286116 volume elements before partitioning.
2 surface markers.
798 boundary elements in index 0 (Marker = AIRFOIL).
1778 boundary elements in index 1 (Marker = FARFIELD).
Executing the partitioning functions.
Building the graph adjacency structure.
Calling ParMETIS... graph partitioning complete (3610 edge cuts).
Distributing ParMETIS coloring.
Rebalancing vertices.
Rebalancing volume element connectivity.
Rebalancing markers and surface elements.
294644 vertices including ghost points. 
289724 interior elements including halo cells. 
289724 quadrilaterals.
Establishing MPI communication patterns.
Setting point connectivity.
Renumbering points (Reverse Cuthill McKee Ordering).
Recomputing point connectivity.
Setting element connectivity.
Checking the numerical grid orientation.
All volume elements are correctly orientend.
There has been a re-orientation of 1295 LINE surface elements.
Identifying edges and vertices.
Setting the control volume structure.
Area of the computational grid: 3236.39.
Searching for the closest normal neighbors to the surfaces.
Storing a mapping from global to local point index.
Compute the surface curvature.
Max K: 6629.39. Mean K: 3.88441. Standard deviation K: 130.885.
Checking for periodicity.
Computing mesh quality statistics for the dual control volumes.
+--------------------------------------------------------------+
|           Mesh Quality Metric|        Minimum|        Maximum|
+--------------------------------------------------------------+
|    Orthogonality Angle (deg.)|        72.4128|             90|
|     CV Face Area Aspect Ratio|        1.00005|         125630|
|           CV Sub-Volume Ratio|              1|        15.2167|
+--------------------------------------------------------------+
Finding max control volume width.
Communicating number of neighbors.
Wetted area = 2.05977 m.
Area projection in the x-plane = 0.121115 m, y-plane = 1.00885 m.
Max. coordinate in the x-direction = 1.00898 m, y-direction = 0.0759841 m.
Min. coordinate in the x-direction = 1.77353e-06 m, y-direction = -0.0451351 m.
Computing wall distances.

-------------------- Solver Preprocessing ( Zone 0 ) --------------------
 Warning: There is no restart file (flow.meta).
 Computation will continue without updating metadata parameters.
Incompressible flow: rho_ref, vel_ref, and temp_ref
are based on the initial values, p_ref = rho_ref*vel_ref^2.
Force coefficients computed using initial values.
The reference area for force coeffs. is 1 m^2.
The reference length for force coeffs. is 1.00898 m.
The pressure is decomposed into thermodynamic and dynamic components.
The initial value of the dynamic pressure is 0.
Mach number: 0.0276747, computed using the Bulk modulus.
For external flows, the initial state is imposed at the far-field.
Angle of attack (deg): 14, computed using the initial velocity.
Side slip angle (deg): 0, computed using the initial velocity.
Reynolds number per meter: 594999, computed using initial values.
Reynolds number is a byproduct of inputs only (not used internally).
SI units only. The grid should be dimensional (meters).
No energy equation.

-- Models:
+------------------------------------------------------------------------------+
|          Viscosity Model|        Conductivity Model|              Fluid Model|
+------------------------------------------------------------------------------+
|       CONSTANT_VISCOSITY|          CONSTANT_PRANDTL|         CONSTANT_DENSITY|
+------------------------------------------------------------------------------+
-- Fluid properties:
+------------------------------------------------------------------------------+
|                  Name|    Dim. value|    Ref. value|      Unit|Non-dim. value|
+------------------------------------------------------------------------------+
|             Viscosity|      1.92e-05|        11.424|   N.s/m^2|   1.68067e-06|
+------------------------------------------------------------------------------+
|        Prandtl (Lam.)|             -|             -|         -|          0.72|
|       Prandtl (Turb.)|             -|             -|         -|           0.9|
+------------------------------------------------------------------------------+
|          Bulk Modulus|        142000|             1|        Pa|        142000|
+------------------------------------------------------------------------------+
-- Initial and free-stream conditions:
+------------------------------------------------------------------------------+
|                  Name|    Dim. value|    Ref. value|      Unit|Non-dim. value|
+------------------------------------------------------------------------------+
|      Dynamic Pressure|             0|       108.756|        Pa|             0|
|        Total Pressure|       54.3781|       108.756|        Pa|           0.5|
|               Density|           1.2|           1.2|    kg/m^3|             1|
|            Velocity-X|        9.2372|       9.51999|       m/s|      0.970296|
|            Velocity-Y|        2.3031|       9.51999|       m/s|      0.241923|
|    Velocity Magnitude|       9.51999|       9.51999|       m/s|             1|
+------------------------------------------------------------------------------+
|             Viscosity|      1.92e-05|        11.424|   N.s/m^2|   1.68067e-06|
|          Conductivity|             -|       3.59312|   W/m^2.K|             -|
|     Turb. Kin. Energy|       1.35945|       90.6301|   m^2/s^2|         0.015|
|     Spec. Dissipation|       8496.58|       9.51999|       1/s|       892.499|
+------------------------------------------------------------------------------+
|           Mach Number|             -|             -|         -|     0.0276747|
|       Reynolds Number|             -|             -|         -|        594999|
+------------------------------------------------------------------------------+
Initialize Jacobian structure (Navier-Stokes). MG level: 0.
Initialize Jacobian structure (SA model).

------------------- Numerics Preprocessing ( Zone 0 ) -------------------

----------------- Integration Preprocessing ( Zone 0 ) ------------------

------------------- Iteration Preprocessing ( Zone 0 ) ------------------
Euler/Navier-Stokes/RANS fluid iteration.

------------------------------ Begin Solver -----------------------------

Simulation Run using the Single-zone Driver
+-----------------------------------------------------------------------------+
|  Inner_Iter|     Min CFL|     Max CFL|      rms[P]|  Cauchy[CD]|          CD|
+-----------------------------------------------------------------------------+
|           0|  2.4000e+00|  2.4000e+00|   -6.353781|  1.0000e+00|    0.106063|
|          10|  1.4860e+01|  1.4860e+01|   -6.363771|  4.7883e-05|    0.104802|
|          20|  7.6675e+00|  7.6675e+00|   -6.684293|  1.2464e-03|    0.074758|
|          30|  4.7475e+01|  4.7475e+01|   -6.723829|  1.8234e-03|    0.060334|
|          40|  2.4496e+01|  2.4496e+01|   -6.706285|  1.9554e-03|    0.057048|
|          50|  1.2639e+01|  1.2639e+01|   -6.739299|  2.0994e-03|    0.060647|
|          60|  6.5217e+01|  6.5217e+01|   -6.692979|  2.2015e-03|    0.063201|
|          70|  3.3651e+01|  3.3651e+01|   -6.781622|  2.2101e-03|    0.063278|
|          80|  1.2058e+01|  1.2058e+01|   -6.801893|  2.2711e-03|    0.061752|
|          90|  6.2215e+01|  6.2215e+01|   -6.857632|  2.3372e-03|    0.060100|
|         100|  1.5481e+01|  1.5481e+01|   -6.979948|  2.3634e-03|    0.060033|
|         110|  7.9878e+00|  7.9878e+00|   -6.943042|  2.4172e-03|    0.061377|
|         120|  4.9459e+01|  4.9459e+01|   -6.989137|  2.4589e-03|    0.062420|
|         130|  4.9459e+01|  4.9459e+01|   -7.015693|  2.5011e-03|    0.062265|
|         140|  4.9459e+01|  4.9459e+01|   -7.079592|  2.6110e-03|    0.059518|
|         150|  5.9350e+00|  5.9350e+00|   -7.131494|  2.6675e-03|    0.058105|
|         160|  3.6748e+01|  3.6748e+01|   -7.137795|  2.6710e-03|    0.058018|
|         170|  1.8961e+01|  1.8961e+01|   -7.122864|  2.6782e-03|    0.058197|
|         180|  4.7182e+01|  4.7182e+01|   -7.103498|  2.7109e-03|    0.059013|
|         190|  2.4345e+01|  2.4345e+01|   -7.113361|  2.7278e-03|    0.059437|
|         200|  5.0481e+01|  5.0481e+01|   -7.170188|  2.7431e-03|    0.059541|
+-----------------------------------------------------------------------+
|        File Writing Summary       |              Filename             |
+-----------------------------------------------------------------------+
|SU2 binary restart                 |restart_flow_G6.dat                |
|Paraview                           |flow_G6.vtu                        |
|Paraview surface                   |surface_flow_G6.vtu                |
+-----------------------------------------------------------------------+
+-----------------------------------------------------------------------------+
|  Inner_Iter|     Min CFL|     Max CFL|      rms[P]|  Cauchy[CD]|          CD|
+-----------------------------------------------------------------------------+
|         210|  7.2693e+00|  7.2693e+00|   -7.226475|  2.7958e-03|    0.058222|
|         220|  4.5010e+01|  4.5010e+01|   -7.223317|  2.8188e-03|    0.057649|
|         230|  2.3224e+01|  2.3224e+01|   -7.218891|  2.8334e-03|    0.057282|
|         240|  1.1983e+01|  1.1983e+01|   -7.214369|  2.8388e-03|    0.057211|
|         250|  5.1525e+01|  5.1525e+01|   -7.212834|  2.8546e-03|    0.057604|
|         260|  2.2155e+01|  2.2155e+01|   -7.221607|  2.8240e-03|    0.058038|
|         270|  7.9384e+00|  7.9384e+00|   -7.263791|  1.6414e-03|    0.058436|
|         280|  4.9153e+01|  4.9153e+01|   -7.280502|  1.0669e-03|    0.058390|
|         290|  2.5362e+01|  2.5362e+01|   -7.283616|  9.4331e-04|    0.058179|
|         300|  1.3086e+01|  1.3086e+01|   -7.261260|  8.1973e-04|    0.057669|
|         310|  6.7521e+01|  6.7521e+01|   -7.262989|  7.4805e-04|    0.056908|
|         320|  3.4840e+01|  3.4840e+01|   -7.311411|  7.5909e-04|    0.056418|
|         330|  1.7976e+01|  1.7976e+01|   -7.397362|  7.1896e-04|    0.055896|
|         340|  9.2755e+00|  9.2755e+00|   -7.434201|  6.7557e-04|    0.055328|
|         350|  5.7431e+01|  5.7431e+01|   -7.411404|  6.6598e-04|    0.054912|
|         360|  2.4694e+01|  2.4694e+01|   -7.340385|  6.3059e-04|    0.054452|
|         370|  1.2742e+01|  1.2742e+01|   -7.331565|  6.0365e-04|    0.054082|
|         380|  6.5745e+00|  6.5745e+00|   -7.401188|  5.6724e-04|    0.053953|
|         390|  4.0707e+01|  4.0707e+01|   -7.492428|  4.6016e-04|    0.054023|
|         400|  2.1004e+01|  2.1004e+01|   -7.558840|  4.1337e-04|    0.054266|
+-----------------------------------------------------------------------+
|        File Writing Summary       |              Filename             |
+-----------------------------------------------------------------------+
|SU2 binary restart                 |restart_flow_G6.dat                |
|Paraview                           |flow_G6.vtu                        |
|Paraview surface                   |surface_flow_G6.vtu                |
+-----------------------------------------------------------------------+
+-----------------------------------------------------------------------------+
|  Inner_Iter|     Min CFL|     Max CFL|      rms[P]|  Cauchy[CD]|          CD|
+-----------------------------------------------------------------------------+
|         410|  6.2718e+01|  6.2718e+01|   -7.457339|  4.1797e-04|    0.054435|
|         420|  6.2718e+01|  6.2718e+01|   -7.487521|  4.4551e-04|    0.053567|
|         430|  6.2718e+01|  6.2718e+01|   -7.655844|  4.6905e-04|    0.052161|
|         440|  6.2718e+01|  6.2718e+01|   -7.585059|  4.8638e-04|    0.051305|
|         450|  6.2718e+01|  6.2718e+01|   -7.732447|  4.8701e-04|    0.050907|
|         460|  6.2718e+01|  6.2718e+01|   -7.685057|  4.5118e-04|    0.050484|
|         470|  6.2718e+01|  6.2718e+01|   -7.650608|  4.4528e-04|    0.050058|
|         480|  6.2718e+01|  6.2718e+01|   -7.739308|  4.5042e-04|    0.049563|
|         490|  1.3005e+01|  1.3005e+01|   -7.717691|  4.6055e-04|    0.049175|
|         500|  6.7104e+00|  6.7104e+00|   -7.712485|  4.5767e-04|    0.048854|
|         510|  4.1549e+01|  4.1549e+01|   -7.749635|  4.4672e-04|    0.048693|
|         520|  5.9830e+01|  5.9830e+01|   -7.813344|  4.4989e-04|    0.048217|
|         530|  5.9830e+01|  5.9830e+01|   -7.777003|  4.6466e-04|    0.047786|
|         540|  5.9830e+01|  5.9830e+01|   -7.817221|  4.6936e-04|    0.047457|
|         550|  1.0339e+01|  1.0339e+01|   -7.829982|  4.5491e-04|    0.047309|
|         560|  6.4015e+01|  6.4015e+01|   -7.881927|  4.2691e-04|    0.047247|
|         570|  3.3030e+01|  3.3030e+01|   -7.901113|  4.0930e-04|    0.047198|
|         580|  5.7076e+01|  5.7076e+01|   -7.905238|  3.9570e-04|    0.047015|
|         590|  2.9450e+01|  2.9450e+01|   -7.955229|  3.7788e-04|    0.046893|
|         600|  1.5196e+01|  1.5196e+01|   -7.934409|  3.6759e-04|    0.046734|
+-----------------------------------------------------------------------+
|        File Writing Summary       |              Filename             |
+-----------------------------------------------------------------------+
|SU2 binary restart                 |restart_flow_G6.dat                |
|Paraview                           |flow_G6.vtu                        |
|Paraview surface                   |surface_flow_G6.vtu                |
+-----------------------------------------------------------------------+
+-----------------------------------------------------------------------------+
|  Inner_Iter|     Min CFL|     Max CFL|      rms[P]|  Cauchy[CD]|          CD|
+-----------------------------------------------------------------------------+
|         610|  7.8406e+00|  7.8406e+00|   -7.837734|  3.5789e-04|    0.046517|
|         620|  4.8547e+01|  4.8547e+01|   -7.852302|  3.4841e-04|    0.046384|
|         630|  5.8256e+01|  5.8256e+01|   -7.803970|  3.5417e-04|    0.046096|
|         640|  5.8256e+01|  5.8256e+01|   -7.799459|  3.5602e-04|    0.045980|
|         650|  5.8256e+01|  5.8256e+01|   -7.844635|  3.4685e-04|    0.045976|
|         660|  5.8256e+01|  5.8256e+01|   -7.898985|  3.3927e-04|    0.045970|
|         670|  2.5049e+01|  2.5049e+01|   -7.939657|  3.0523e-04|    0.045953|
|         680|  1.2925e+01|  1.2925e+01|   -7.928444|  2.5040e-04|    0.045919|
|         690|  5.5574e+01|  5.5574e+01|   -7.911064|  2.1832e-04|    0.045864|
|         700|  5.5574e+01|  5.5574e+01|   -7.883132|  2.0549e-04|    0.045787|
|         710|  5.5574e+01|  5.5574e+01|   -7.869995|  1.8944e-04|    0.045780|
|         720|  5.5574e+01|  5.5574e+01|   -7.888620|  1.7540e-04|    0.045855|
|         730|  5.5574e+01|  5.5574e+01|   -7.903584|  1.6016e-04|    0.045969|
|         740|  5.5574e+01|  5.5574e+01|   -7.908657|  1.4889e-04|    0.046074|
|         750|  5.5574e+01|  5.5574e+01|   -7.911380|  1.3985e-04|    0.046170|
|         760|  5.5574e+01|  5.5574e+01|   -7.904654|  1.3780e-04|    0.046279|
|         770|  5.5574e+01|  5.5574e+01|   -7.898011|  1.2420e-04|    0.046416|
|         780|  5.5574e+01|  5.5574e+01|   -7.887334|  1.1309e-04|    0.046569|
|         790|  5.5574e+01|  5.5574e+01|   -7.875817|  1.0607e-04|    0.046722|
|         800|  5.5574e+01|  5.5574e+01|   -7.875893|  1.0614e-04|    0.046872|
+-----------------------------------------------------------------------+
|        File Writing Summary       |              Filename             |
+-----------------------------------------------------------------------+
|SU2 binary restart                 |restart_flow_G6.dat                |
|Paraview                           |flow_G6.vtu                        |
|Paraview surface                   |surface_flow_G6.vtu                |
+-----------------------------------------------------------------------+
+-----------------------------------------------------------------------------+
|  Inner_Iter|     Min CFL|     Max CFL|      rms[P]|  Cauchy[CD]|          CD|
+-----------------------------------------------------------------------------+
|         810|  8.0027e+00|  8.0027e+00|   -7.882347|  1.0952e-04|    0.047018|
|         820|  4.9550e+01|  4.9550e+01|   -7.896844|  1.1006e-04|    0.047081|
|         830|  2.5567e+01|  2.5567e+01|   -7.902927|  1.0524e-04|    0.047143|
|         840|  1.3192e+01|  1.3192e+01|   -7.900547|  1.0391e-04|    0.047232|
|         850|  5.6723e+01|  5.6723e+01|   -7.899327|  1.0163e-04|    0.047334|
|         860|  5.6723e+01|  5.6723e+01|   -7.901500|  9.9564e-05|    0.047499|
|         870|  1.4115e+01|  1.4115e+01|   -7.916746|  9.8257e-05|    0.047600|
|         880|  7.2828e+00|  7.2828e+00|   -7.931062|  8.9605e-05|    0.047671|
|         890|  4.5093e+01|  4.5093e+01|   -7.947798|  8.6653e-05|    0.047714|
|         900|  2.3267e+01|  2.3267e+01|   -7.967660|  8.8320e-05|    0.047769|
|         910|  5.7896e+01|  5.7896e+01|   -7.989610|  9.1977e-05|    0.047874|
|         920|  5.7896e+01|  5.7896e+01|   -8.024183|  9.6554e-05|    0.048005|
|         930|  1.2005e+01|  1.2005e+01|   -8.033164|  9.9015e-05|    0.048101|
|         940|  6.1945e+00|  6.1945e+00|   -8.063812|  9.9390e-05|    0.048165|
|         950|  3.8354e+01|  3.8354e+01|   -8.078481|  9.7524e-05|    0.048196|
|         960|  1.9790e+01|  1.9790e+01|   -8.087672|  9.8634e-05|    0.048245|
|         970|  5.9093e+01|  5.9093e+01|   -8.092206|  9.8403e-05|    0.048315|
|         980|  5.9093e+01|  5.9093e+01|   -8.119310|  9.6820e-05|    0.048389|
|         990|  5.9093e+01|  5.9093e+01|   -8.144995|  9.4900e-05|    0.048447|
|        1000|  5.9093e+01|  5.9093e+01|   -8.162460|  9.3111e-05|    0.048498|
+-----------------------------------------------------------------------+
|        File Writing Summary       |              Filename             |
+-----------------------------------------------------------------------+
|SU2 binary restart                 |restart_flow_G6.dat                |
|Paraview                           |flow_G6.vtu                        |
|Paraview surface                   |surface_flow_G6.vtu                |
+-----------------------------------------------------------------------+
+-----------------------------------------------------------------------------+
|  Inner_Iter|     Min CFL|     Max CFL|      rms[P]|  Cauchy[CD]|          CD|
+-----------------------------------------------------------------------------+
|        1010|  5.9093e+01|  5.9093e+01|   -8.171142|  9.0386e-05|    0.048539|
|        1020|  5.9093e+01|  5.9093e+01|   -8.174077|  8.6015e-05|    0.048566|
|        1030|  5.9093e+01|  5.9093e+01|   -8.175808|  8.0331e-05|    0.048577|
|        1040|  5.9093e+01|  5.9093e+01|   -8.177856|  7.4359e-05|    0.048574|
|        1050|  5.9093e+01|  5.9093e+01|   -8.178952|  6.8925e-05|    0.048560|
|        1060|  5.9093e+01|  5.9093e+01|   -8.177117|  6.4052e-05|    0.048536|
|        1070|  5.9093e+01|  5.9093e+01|   -8.170220|  6.2900e-05|    0.048502|
|        1080|  5.9093e+01|  5.9093e+01|   -8.158334|  6.2151e-05|    0.048458|
|        1090|  5.9093e+01|  5.9093e+01|   -8.144206|  6.0675e-05|    0.048407|
|        1100|  5.9093e+01|  5.9093e+01|   -8.130273|  5.8849e-05|    0.048349|
|        1110|  5.9093e+01|  5.9093e+01|   -8.117357|  5.4748e-05|    0.048287|
|        1120|  5.9093e+01|  5.9093e+01|   -8.105079|  5.3511e-05|    0.048218|
|        1130|  5.9093e+01|  5.9093e+01|   -8.093709|  5.3677e-05|    0.048142|
|        1140|  5.9093e+01|  5.9093e+01|   -8.085158|  5.5196e-05|    0.048061|
|        1150|  5.9093e+01|  5.9093e+01|   -8.081803|  5.6294e-05|    0.047978|
|        1160|  5.9093e+01|  5.9093e+01|   -8.084768|  5.5478e-05|    0.047894|
|        1170|  5.9093e+01|  5.9093e+01|   -8.093239|  5.3665e-05|    0.047808|
|        1180|  5.9093e+01|  5.9093e+01|   -8.106291|  5.3354e-05|    0.047720|
|        1190|  5.9093e+01|  5.9093e+01|   -8.123444|  5.4427e-05|    0.047629|
|        1200|  5.9093e+01|  5.9093e+01|   -8.144940|  5.6875e-05|    0.047537|
+-----------------------------------------------------------------------+
|        File Writing Summary       |              Filename             |
+-----------------------------------------------------------------------+
|SU2 binary restart                 |restart_flow_G6.dat                |
|Paraview                           |flow_G6.vtu                        |
|Paraview surface                   |surface_flow_G6.vtu                |
+-----------------------------------------------------------------------+
+-----------------------------------------------------------------------------+
|  Inner_Iter|     Min CFL|     Max CFL|      rms[P]|  Cauchy[CD]|          CD|
+-----------------------------------------------------------------------------+
|        1210|  5.9093e+01|  5.9093e+01|   -8.170914|  5.8570e-05|    0.047445|
|        1220|  5.9093e+01|  5.9093e+01|   -8.200578|  5.9465e-05|    0.047354|
|        1230|  3.0491e+01|  3.0491e+01|   -8.225313|  5.7651e-05|    0.047324|
|        1240|  1.5732e+01|  1.5732e+01|   -8.232724|  5.7083e-05|    0.047281|
|        1250|  5.6372e+01|  5.6372e+01|   -8.251038|  5.7302e-05|    0.047225|
|        1260|  5.6372e+01|  5.6372e+01|   -8.280337|  5.9034e-05|    0.047140|
|        1270|  5.6372e+01|  5.6372e+01|   -8.310297|  6.1467e-05|    0.047052|
|        1280|  5.6372e+01|  5.6372e+01|   -8.341175|  6.4517e-05|    0.046965|
|        1290|  5.6372e+01|  5.6372e+01|   -8.372242|  6.7828e-05|    0.046878|
|        1300|  8.1176e+00|  8.1176e+00|   -8.368542|  7.0111e-05|    0.046807|
|        1310|  5.0262e+01|  5.0262e+01|   -8.430387|  7.0531e-05|    0.046772|
|        1320|  2.5934e+01|  2.5934e+01|   -8.444179|  7.0440e-05|    0.046741|
|        1330|  5.3777e+01|  5.3777e+01|   -8.446198|  7.1377e-05|    0.046674|
|        1340|  5.3777e+01|  5.3777e+01|   -8.471716|  7.2504e-05|    0.046594|
|        1350|  5.3777e+01|  5.3777e+01|   -8.490591|  7.3501e-05|    0.046512|
|        1360|  5.3777e+01|  5.3777e+01|   -8.506141|  7.4295e-05|    0.046429|
|        1370|  5.3777e+01|  5.3777e+01|   -8.516326|  7.4811e-05|    0.046347|
|        1380|  5.3777e+01|  5.3777e+01|   -8.520155|  7.5065e-05|    0.046265|
|        1390|  5.3777e+01|  5.3777e+01|   -8.518342|  7.5105e-05|    0.046184|
|        1400|  5.3777e+01|  5.3777e+01|   -8.511086|  7.5031e-05|    0.046103|
+-----------------------------------------------------------------------+
|        File Writing Summary       |              Filename             |
+-----------------------------------------------------------------------+
|SU2 binary restart                 |restart_flow_G6.dat                |
|Paraview                           |flow_G6.vtu                        |
|Paraview surface                   |surface_flow_G6.vtu                |
+-----------------------------------------------------------------------+
+-----------------------------------------------------------------------------+
|  Inner_Iter|     Min CFL|     Max CFL|      rms[P]|  Cauchy[CD]|          CD|
+-----------------------------------------------------------------------------+
|        1410|  5.3777e+01|  5.3777e+01|   -8.499987|  7.4947e-05|    0.046021|
|        1420|  5.3777e+01|  5.3777e+01|   -8.487070|  7.4835e-05|    0.045937|
|        1430|  5.3777e+01|  5.3777e+01|   -8.474281|  7.4631e-05|    0.045854|
|        1440|  5.3777e+01|  5.3777e+01|   -8.463090|  7.4331e-05|    0.045771|
|        1450|  5.3777e+01|  5.3777e+01|   -8.454651|  7.3997e-05|    0.045687|
|        1460|  5.3777e+01|  5.3777e+01|   -8.449820|  7.3687e-05|    0.045603|
|        1470|  5.3777e+01|  5.3777e+01|   -8.448993|  7.3417e-05|    0.045518|
|        1480|  5.3777e+01|  5.3777e+01|   -8.452032|  7.5642e-05|    0.045433|
|        1490|  5.3777e+01|  5.3777e+01|   -8.458403|  7.7304e-05|    0.045348|
|        1500|  5.3777e+01|  5.3777e+01|   -8.467747|  7.8459e-05|    0.045263|
|        1510|  1.9269e+01|  1.9269e+01|   -8.491496|  7.6550e-05|    0.045226|
|        1520|  9.9425e+00|  9.9425e+00|   -8.461726|  7.4812e-05|    0.045182|
|        1530|  5.1301e+01|  5.1301e+01|   -8.501933|  7.2964e-05|    0.045141|
|        1540|  5.1301e+01|  5.1301e+01|   -8.506058|  7.2686e-05|    0.045061|
|        1550|  5.1301e+01|  5.1301e+01|   -8.520527|  7.3129e-05|    0.044979|
|        1560|  5.1301e+01|  5.1301e+01|   -8.535122|  7.5052e-05|    0.044896|
|        1570|  5.1301e+01|  5.1301e+01|   -8.550795|  7.7083e-05|    0.044814|
|        1580|  1.8382e+01|  1.8382e+01|   -8.580462|  7.5820e-05|    0.044778|
|        1590|  9.4848e+00|  9.4848e+00|   -8.544000|  7.4334e-05|    0.044736|
|        1600|  4.8939e+01|  4.8939e+01|   -8.587703|  7.2636e-05|    0.044696|
+-----------------------------------------------------------------------+
|        File Writing Summary       |              Filename             |
+-----------------------------------------------------------------------+
|SU2 binary restart                 |restart_flow_G6.dat                |
|Paraview                           |flow_G6.vtu                        |
|Paraview surface                   |surface_flow_G6.vtu                |
+-----------------------------------------------------------------------+
+-----------------------------------------------------------------------------+
|  Inner_Iter|     Min CFL|     Max CFL|      rms[P]|  Cauchy[CD]|          CD|
+-----------------------------------------------------------------------------+
|        1610|  4.8939e+01|  4.8939e+01|   -8.591275|  7.2389e-05|    0.044620|
|        1620|  4.8939e+01|  4.8939e+01|   -8.603148|  7.2212e-05|    0.044542|
|        1630|  4.8939e+01|  4.8939e+01|   -8.613600|  7.2025e-05|    0.044465|
|        1640|  4.8939e+01|  4.8939e+01|   -8.623446|  7.1872e-05|    0.044387|
|        1650|  4.8939e+01|  4.8939e+01|   -8.632382|  7.1733e-05|    0.044309|
|        1660|  4.8939e+01|  4.8939e+01|   -8.639973|  7.1537e-05|    0.044232|
|        1670|  4.8939e+01|  4.8939e+01|   -8.647085|  7.1265e-05|    0.044156|
|        1680|  4.8939e+01|  4.8939e+01|   -8.653105|  7.0938e-05|    0.044081|
|        1690|  4.8939e+01|  4.8939e+01|   -8.657961|  7.0592e-05|    0.044006|
|        1700|  4.8939e+01|  4.8939e+01|   -8.661956|  7.0236e-05|    0.043931|
|        1710|  4.8939e+01|  4.8939e+01|   -8.665317|  6.9842e-05|    0.043857|
|        1720|  4.8939e+01|  4.8939e+01|   -8.668295|  6.9397e-05|    0.043783|
|        1730|  4.8939e+01|  4.8939e+01|   -8.671298|  6.8908e-05|    0.043711|
|        1740|  4.8939e+01|  4.8939e+01|   -8.674453|  6.8382e-05|    0.043639|
|        1750|  4.8939e+01|  4.8939e+01|   -8.677832|  6.7829e-05|    0.043568|
|        1760|  4.8939e+01|  4.8939e+01|   -8.681732|  6.9181e-05|    0.043497|
|        1770|  4.8939e+01|  4.8939e+01|   -8.686459|  7.0212e-05|    0.043427|
|        1780|  4.8939e+01|  4.8939e+01|   -8.692151|  7.1337e-05|    0.043357|
|        1790|  4.8939e+01|  4.8939e+01|   -8.698702|  7.0884e-05|    0.043289|
|        1800|  4.8939e+01|  4.8939e+01|   -8.705932|  7.0289e-05|    0.043221|
+-----------------------------------------------------------------------+
|        File Writing Summary       |              Filename             |
+-----------------------------------------------------------------------+
|SU2 binary restart                 |restart_flow_G6.dat                |
|Paraview                           |flow_G6.vtu                        |
|Paraview surface                   |surface_flow_G6.vtu                |
+-----------------------------------------------------------------------+
+-----------------------------------------------------------------------------+
|  Inner_Iter|     Min CFL|     Max CFL|      rms[P]|  Cauchy[CD]|          CD|
+-----------------------------------------------------------------------------+
|        1810|  4.8939e+01|  4.8939e+01|   -8.713763|  6.9657e-05|    0.043155|
|        1820|  4.8939e+01|  4.8939e+01|   -8.721962|  6.9011e-05|    0.043088|
|        1830|  4.8939e+01|  4.8939e+01|   -8.730261|  7.0214e-05|    0.043023|
|        1840|  5.8727e+00|  5.8727e+00|   -8.738260|  7.0875e-05|    0.042964|
|        1850|  3.6362e+01|  3.6362e+01|   -8.761928|  7.0124e-05|    0.042943|
|        1860|  1.8762e+01|  1.8762e+01|   -8.768492|  6.8134e-05|    0.042916|
|        1870|  4.6686e+01|  4.6686e+01|   -8.753979|  6.6936e-05|    0.042869|
|        1880|  4.6686e+01|  4.6686e+01|   -8.758673|  6.6202e-05|    0.042810|
|        1890|  4.6686e+01|  4.6686e+01|   -8.762102|  6.5463e-05|    0.042750|
|        1900|  4.6686e+01|  4.6686e+01|   -8.764892|  6.4712e-05|    0.042692|
|        1910|  4.6686e+01|  4.6686e+01|   -8.767089|  6.3952e-05|    0.042633|
|        1920|  4.6686e+01|  4.6686e+01|   -8.768099|  6.3198e-05|    0.042576|
|        1930|  4.6686e+01|  4.6686e+01|   -8.768469|  6.2468e-05|    0.042519|
|        1940|  4.6686e+01|  4.6686e+01|   -8.769092|  6.1725e-05|    0.042463|
|        1950|  4.6686e+01|  4.6686e+01|   -8.769581|  6.0936e-05|    0.042408|
|        1960|  4.6686e+01|  4.6686e+01|   -8.769789|  6.0129e-05|    0.042354|
|        1970|  4.6686e+01|  4.6686e+01|   -8.769887|  5.9339e-05|    0.042300|
|        1980|  4.6686e+01|  4.6686e+01|   -8.770016|  5.8569e-05|    0.042246|
|        1990|  4.6686e+01|  4.6686e+01|   -8.770203|  5.7807e-05|    0.042194|
|        2000|  4.6686e+01|  4.6686e+01|   -8.770496|  5.7042e-05|    0.042141|
+-----------------------------------------------------------------------+
|        File Writing Summary       |              Filename             |
+-----------------------------------------------------------------------+
|SU2 binary restart                 |restart_flow_G6.dat                |
|Paraview                           |flow_G6.vtu                        |
|Paraview surface                   |surface_flow_G6.vtu                |
+-----------------------------------------------------------------------+
+-----------------------------------------------------------------------------+
|  Inner_Iter|     Min CFL|     Max CFL|      rms[P]|  Cauchy[CD]|          CD|
+-----------------------------------------------------------------------------+
|        2010|  4.6686e+01|  4.6686e+01|   -8.770968|  5.6273e-05|    0.042090|
|        2020|  4.6686e+01|  4.6686e+01|   -8.771560|  5.5507e-05|    0.042039|
|        2030|  4.6686e+01|  4.6686e+01|   -8.772130|  5.4753e-05|    0.041989|
|        2040|  4.6686e+01|  4.6686e+01|   -8.772593|  5.4015e-05|    0.041939|
|        2050|  4.6686e+01|  4.6686e+01|   -8.772947|  5.3290e-05|    0.041889|
|        2060|  4.6686e+01|  4.6686e+01|   -8.773242|  5.2572e-05|    0.041840|
|        2070|  4.6686e+01|  4.6686e+01|   -8.773396|  5.1860e-05|    0.041792|
|        2080|  4.6686e+01|  4.6686e+01|   -8.773411|  5.1159e-05|    0.041744|
|        2090|  4.6686e+01|  4.6686e+01|   -8.773367|  5.0708e-05|    0.041696|
|        2100|  4.6686e+01|  4.6686e+01|   -8.773244|  5.1774e-05|    0.041649|
|        2110|  4.6686e+01|  4.6686e+01|   -8.772930|  5.2597e-05|    0.041601|
|        2120|  4.6686e+01|  4.6686e+01|   -8.772401|  5.2557e-05|    0.041555|
|        2130|  4.6686e+01|  4.6686e+01|   -8.771605|  5.2050e-05|    0.041508|
|        2140|  4.6686e+01|  4.6686e+01|   -8.770689|  5.1525e-05|    0.041462|
|        2150|  4.6686e+01|  4.6686e+01|   -8.769674|  5.1009e-05|    0.041416|
|        2160|  4.6686e+01|  4.6686e+01|   -8.768684|  5.0511e-05|    0.041371|
|        2170|  4.6686e+01|  4.6686e+01|   -8.767642|  5.0037e-05|    0.041325|
|        2180|  4.6686e+01|  4.6686e+01|   -8.766628|  4.9581e-05|    0.041279|
|        2190|  4.6686e+01|  4.6686e+01|   -8.765602|  4.9155e-05|    0.041234|
|        2200|  4.6686e+01|  4.6686e+01|   -8.764701|  4.8769e-05|    0.041189|
+-----------------------------------------------------------------------+
|        File Writing Summary       |              Filename             |
+-----------------------------------------------------------------------+
|SU2 binary restart                 |restart_flow_G6.dat                |
|Paraview                           |flow_G6.vtu                        |
|Paraview surface                   |surface_flow_G6.vtu                |
+-----------------------------------------------------------------------+
+-----------------------------------------------------------------------------+
|  Inner_Iter|     Min CFL|     Max CFL|      rms[P]|  Cauchy[CD]|          CD|
+-----------------------------------------------------------------------------+
|        2210|  4.6686e+01|  4.6686e+01|   -8.763900|  4.8407e-05|    0.041144|
|        2220|  4.6686e+01|  4.6686e+01|   -8.763293|  4.8054e-05|    0.041099|
|        2230|  4.6686e+01|  4.6686e+01|   -8.762896|  4.7717e-05|    0.041054|
|        2240|  4.6686e+01|  4.6686e+01|   -8.762694|  4.7405e-05|    0.041009|
|        2250|  4.6686e+01|  4.6686e+01|   -8.762675|  4.7120e-05|    0.040963|
|        2260|  4.6686e+01|  4.6686e+01|   -8.762860|  4.6861e-05|    0.040918|
|        2270|  4.6686e+01|  4.6686e+01|   -8.763249|  4.6623e-05|    0.040874|
|        2280|  4.6686e+01|  4.6686e+01|   -8.763815|  4.6403e-05|    0.040829|
|        2290|  4.6686e+01|  4.6686e+01|   -8.764492|  4.6201e-05|    0.040784|
|        2300|  4.6686e+01|  4.6686e+01|   -8.765180|  4.6017e-05|    0.040739|
|        2310|  4.6686e+01|  4.6686e+01|   -8.765910|  4.5852e-05|    0.040694|
|        2320|  4.6686e+01|  4.6686e+01|   -8.766624|  4.5705e-05|    0.040649|
|        2330|  4.6686e+01|  4.6686e+01|   -8.767392|  4.5571e-05|    0.040605|
|        2340|  4.6686e+01|  4.6686e+01|   -8.768196|  4.5447e-05|    0.040560|
|        2350|  4.6686e+01|  4.6686e+01|   -8.768978|  4.5332e-05|    0.040515|
|        2360|  4.6686e+01|  4.6686e+01|   -8.769703|  4.5225e-05|    0.040471|
|        2370|  4.6686e+01|  4.6686e+01|   -8.770342|  4.5129e-05|    0.040427|
|        2380|  4.6686e+01|  4.6686e+01|   -8.770933|  4.5040e-05|    0.040382|
|        2390|  4.6686e+01|  4.6686e+01|   -8.771540|  4.4956e-05|    0.040338|
|        2400|  4.6686e+01|  4.6686e+01|   -8.772178|  4.4875e-05|    0.040294|
+-----------------------------------------------------------------------+
|        File Writing Summary       |              Filename             |
+-----------------------------------------------------------------------+
|SU2 binary restart                 |restart_flow_G6.dat                |
|Paraview                           |flow_G6.vtu                        |
|Paraview surface                   |surface_flow_G6.vtu                |
+-----------------------------------------------------------------------+
+-----------------------------------------------------------------------------+
|  Inner_Iter|     Min CFL|     Max CFL|      rms[P]|  Cauchy[CD]|          CD|
+-----------------------------------------------------------------------------+
|        2410|  4.6686e+01|  4.6686e+01|   -8.772894|  4.4792e-05|    0.040251|
|        2420|  4.6686e+01|  4.6686e+01|   -8.773644|  4.4705e-05|    0.040207|
|        2430|  4.6686e+01|  4.6686e+01|   -8.774427|  4.4613e-05|    0.040164|
|        2440|  4.6686e+01|  4.6686e+01|   -8.775299|  4.4516e-05|    0.040121|
|        2450|  4.6686e+01|  4.6686e+01|   -8.776281|  4.4413e-05|    0.040079|
|        2460|  4.6686e+01|  4.6686e+01|   -8.777364|  4.4304e-05|    0.040036|
|        2470|  4.6686e+01|  4.6686e+01|   -8.778574|  4.4186e-05|    0.039994|
|        2480|  4.6686e+01|  4.6686e+01|   -8.779883|  4.4058e-05|    0.039952|
|        2490|  4.6686e+01|  4.6686e+01|   -8.781301|  4.3919e-05|    0.039911|
|        2500|  4.6686e+01|  4.6686e+01|   -8.782825|  4.3770e-05|    0.039869|
|        2510|  4.6686e+01|  4.6686e+01|   -8.784387|  4.3610e-05|    0.039828|
|        2520|  4.6686e+01|  4.6686e+01|   -8.786105|  4.3440e-05|    0.039788|
|        2530|  4.6686e+01|  4.6686e+01|   -8.787920|  4.3259e-05|    0.039747|
|        2540|  4.6686e+01|  4.6686e+01|   -8.789800|  4.3069e-05|    0.039707|
|        2550|  4.6686e+01|  4.6686e+01|   -8.791669|  4.2869e-05|    0.039667|
|        2560|  4.6686e+01|  4.6686e+01|   -8.793524|  4.2661e-05|    0.039627|
|        2570|  4.6686e+01|  4.6686e+01|   -8.795387|  4.2445e-05|    0.039588|
|        2580|  4.6686e+01|  4.6686e+01|   -8.797252|  4.2221e-05|    0.039549|
|        2590|  4.6686e+01|  4.6686e+01|   -8.799155|  4.1991e-05|    0.039510|
|        2600|  4.6686e+01|  4.6686e+01|   -8.801070|  4.1755e-05|    0.039471|
+-----------------------------------------------------------------------+
|        File Writing Summary       |              Filename             |
+-----------------------------------------------------------------------+
|SU2 binary restart                 |restart_flow_G6.dat                |
|Paraview                           |flow_G6.vtu                        |
|Paraview surface                   |surface_flow_G6.vtu                |
+-----------------------------------------------------------------------+
+-----------------------------------------------------------------------------+
|  Inner_Iter|     Min CFL|     Max CFL|      rms[P]|  Cauchy[CD]|          CD|
+-----------------------------------------------------------------------------+
|        2610|  4.6686e+01|  4.6686e+01|   -8.803037|  4.1514e-05|    0.039433|
|        2620|  4.6686e+01|  4.6686e+01|   -8.804980|  4.1271e-05|    0.039395|
|        2630|  4.6686e+01|  4.6686e+01|   -8.806966|  4.1025e-05|    0.039357|
|        2640|  4.6686e+01|  4.6686e+01|   -8.808921|  4.0780e-05|    0.039319|
|        2650|  4.6686e+01|  4.6686e+01|   -8.810167|  4.0537e-05|    0.039281|
|        2660|  4.6686e+01|  4.6686e+01|   -8.811563|  4.0296e-05|    0.039243|
|        2670|  4.6686e+01|  4.6686e+01|   -8.813201|  4.0060e-05|    0.039206|
|        2680|  4.6686e+01|  4.6686e+01|   -8.815169|  3.9828e-05|    0.039168|
|        2690|  4.6686e+01|  4.6686e+01|   -8.817377|  3.9601e-05|    0.039131|
|        2700|  4.6686e+01|  4.6686e+01|   -8.819640|  3.9380e-05|    0.039094|
|        2710|  4.6686e+01|  4.6686e+01|   -8.821731|  3.9167e-05|    0.039057|
|        2720|  4.6686e+01|  4.6686e+01|   -8.823545|  3.8962e-05|    0.039020|
|        2730|  4.6686e+01|  4.6686e+01|   -8.825163|  3.8764e-05|    0.038983|
|        2740|  4.6686e+01|  4.6686e+01|   -8.826685|  3.8574e-05|    0.038946|
|        2750|  4.6686e+01|  4.6686e+01|   -8.828243|  3.8391e-05|    0.038909|
|        2760|  4.6686e+01|  4.6686e+01|   -8.829828|  3.8215e-05|    0.038873|
|        2770|  4.6686e+01|  4.6686e+01|   -8.831387|  3.8046e-05|    0.038836|
|        2780|  4.6686e+01|  4.6686e+01|   -8.832842|  3.7885e-05|    0.038800|
|        2790|  4.6686e+01|  4.6686e+01|   -8.834189|  3.7730e-05|    0.038764|
|        2800|  4.6686e+01|  4.6686e+01|   -8.835459|  3.7580e-05|    0.038728|
+-----------------------------------------------------------------------+
|        File Writing Summary       |              Filename             |
+-----------------------------------------------------------------------+
|SU2 binary restart                 |restart_flow_G6.dat                |
|Paraview                           |flow_G6.vtu                        |
|Paraview surface                   |surface_flow_G6.vtu                |
+-----------------------------------------------------------------------+
+-----------------------------------------------------------------------------+
|  Inner_Iter|     Min CFL|     Max CFL|      rms[P]|  Cauchy[CD]|          CD|
+-----------------------------------------------------------------------------+
|        2810|  4.6686e+01|  4.6686e+01|   -8.836648|  3.7435e-05|    0.038692|
|        2820|  4.6686e+01|  4.6686e+01|   -8.837780|  3.7294e-05|    0.038656|
|        2830|  4.6686e+01|  4.6686e+01|   -8.838921|  3.7157e-05|    0.038620|
|        2840|  4.6686e+01|  4.6686e+01|   -8.840080|  3.7025e-05|    0.038584|
|        2850|  4.6686e+01|  4.6686e+01|   -8.841251|  3.6896e-05|    0.038549|
|        2860|  4.6686e+01|  4.6686e+01|   -8.842387|  3.6767e-05|    0.038514|
|        2870|  4.6686e+01|  4.6686e+01|   -8.843529|  3.6638e-05|    0.038479|
|        2880|  4.6686e+01|  4.6686e+01|   -8.844664|  3.6509e-05|    0.038444|
|        2890|  4.6686e+01|  4.6686e+01|   -8.845818|  3.6378e-05|    0.038409|
|        2900|  4.6686e+01|  4.6686e+01|   -8.846995|  3.6245e-05|    0.038375|
|        2910|  4.6686e+01|  4.6686e+01|   -8.848198|  3.6110e-05|    0.038341|
|        2920|  4.6686e+01|  4.6686e+01|   -8.849474|  3.5973e-05|    0.038307|
|        2930|  4.6686e+01|  4.6686e+01|   -8.850827|  3.5831e-05|    0.038273|
|        2940|  4.6686e+01|  4.6686e+01|   -8.852222|  3.5686e-05|    0.038239|
|        2950|  4.6686e+01|  4.6686e+01|   -8.853705|  3.5535e-05|    0.038206|
|        2960|  4.6686e+01|  4.6686e+01|   -8.855227|  3.5378e-05|    0.038172|
|        2970|  4.6686e+01|  4.6686e+01|   -8.856807|  3.5217e-05|    0.038140|
|        2980|  4.6686e+01|  4.6686e+01|   -8.858469|  3.5051e-05|    0.038107|
|        2990|  4.6686e+01|  4.6686e+01|   -8.860205|  3.4881e-05|    0.038074|
|        3000|  4.6686e+01|  4.6686e+01|   -8.862018|  3.4709e-05|    0.038042|
+-----------------------------------------------------------------------+
|        File Writing Summary       |              Filename             |
+-----------------------------------------------------------------------+
|SU2 binary restart                 |restart_flow_G6.dat                |
|Paraview                           |flow_G6.vtu                        |
|Paraview surface                   |surface_flow_G6.vtu                |
+-----------------------------------------------------------------------+
+-----------------------------------------------------------------------------+
|  Inner_Iter|     Min CFL|     Max CFL|      rms[P]|  Cauchy[CD]|          CD|
+-----------------------------------------------------------------------------+
|        3010|  4.6686e+01|  4.6686e+01|   -8.863907|  3.4533e-05|    0.038010|
|        3020|  4.6686e+01|  4.6686e+01|   -8.865860|  3.4355e-05|    0.037977|
|        3030|  4.6686e+01|  4.6686e+01|   -8.867834|  3.4173e-05|    0.037946|
|        3040|  4.6686e+01|  4.6686e+01|   -8.869874|  3.3989e-05|    0.037914|
|        3050|  4.6686e+01|  4.6686e+01|   -8.871949|  3.3804e-05|    0.037883|
|        3060|  4.6686e+01|  4.6686e+01|   -8.874108|  3.3617e-05|    0.037851|
|        3070|  4.6686e+01|  4.6686e+01|   -8.876317|  3.3430e-05|    0.037820|
|        3080|  4.6686e+01|  4.6686e+01|   -8.878580|  3.3243e-05|    0.037789|
|        3090|  4.6686e+01|  4.6686e+01|   -8.880857|  3.3055e-05|    0.037758|
|        3100|  4.6686e+01|  4.6686e+01|   -8.883207|  3.2867e-05|    0.037727|
|        3110|  4.6686e+01|  4.6686e+01|   -8.885633|  3.2681e-05|    0.037697|
|        3120|  4.6686e+01|  4.6686e+01|   -8.888122|  3.2496e-05|    0.037666|
|        3130|  4.6686e+01|  4.6686e+01|   -8.890627|  3.2312e-05|    0.037636|
|        3140|  4.6686e+01|  4.6686e+01|   -8.893176|  3.2130e-05|    0.037606|
|        3150|  4.6686e+01|  4.6686e+01|   -8.895691|  3.1950e-05|    0.037576|
|        3160|  4.6686e+01|  4.6686e+01|   -8.898204|  3.1771e-05|    0.037546|
|        3170|  4.6686e+01|  4.6686e+01|   -8.900673|  3.1595e-05|    0.037517|
|        3180|  4.6686e+01|  4.6686e+01|   -8.903135|  3.1422e-05|    0.037487|
|        3190|  4.6686e+01|  4.6686e+01|   -8.905530|  3.1253e-05|    0.037458|
|        3200|  4.6686e+01|  4.6686e+01|   -8.907849|  3.1086e-05|    0.037429|
+-----------------------------------------------------------------------+
|        File Writing Summary       |              Filename             |
+-----------------------------------------------------------------------+
|SU2 binary restart                 |restart_flow_G6.dat                |
|Paraview                           |flow_G6.vtu                        |
|Paraview surface                   |surface_flow_G6.vtu                |
+-----------------------------------------------------------------------+
+-----------------------------------------------------------------------------+
|  Inner_Iter|     Min CFL|     Max CFL|      rms[P]|  Cauchy[CD]|          CD|
+-----------------------------------------------------------------------------+
|        3210|  4.6686e+01|  4.6686e+01|   -8.910139|  3.0922e-05|    0.037399|
|        3220|  4.6686e+01|  4.6686e+01|   -8.912332|  3.0761e-05|    0.037371|
|        3230|  4.6686e+01|  4.6686e+01|   -8.914471|  3.0601e-05|    0.037342|
|        3240|  4.6686e+01|  4.6686e+01|   -8.916517|  3.0442e-05|    0.037313|
|        3250|  4.6686e+01|  4.6686e+01|   -8.918457|  3.0285e-05|    0.037285|
|        3260|  4.6686e+01|  4.6686e+01|   -8.920328|  3.0129e-05|    0.037256|
|        3270|  4.6686e+01|  4.6686e+01|   -8.922106|  2.9975e-05|    0.037228|
|        3280|  4.6686e+01|  4.6686e+01|   -8.923827|  2.9821e-05|    0.037200|
|        3290|  4.6686e+01|  4.6686e+01|   -8.925456|  2.9667e-05|    0.037172|
|        3300|  4.6686e+01|  4.6686e+01|   -8.927017|  2.9514e-05|    0.037145|
|        3310|  4.6686e+01|  4.6686e+01|   -8.928530|  2.9360e-05|    0.037117|
|        3320|  4.6686e+01|  4.6686e+01|   -8.930003|  2.9206e-05|    0.037090|
|        3330|  4.6686e+01|  4.6686e+01|   -8.931453|  2.9052e-05|    0.037063|
|        3340|  4.6686e+01|  4.6686e+01|   -8.932867|  2.8897e-05|    0.037036|
|        3350|  4.6686e+01|  4.6686e+01|   -8.934259|  2.8742e-05|    0.037009|
|        3360|  4.6686e+01|  4.6686e+01|   -8.935658|  2.8587e-05|    0.036982|
|        3370|  4.6686e+01|  4.6686e+01|   -8.937064|  2.8432e-05|    0.036956|
|        3380|  4.6686e+01|  4.6686e+01|   -8.938509|  2.8277e-05|    0.036929|
|        3390|  4.6686e+01|  4.6686e+01|   -8.939981|  2.8122e-05|    0.036903|
|        3400|  4.6686e+01|  4.6686e+01|   -8.941483|  2.7967e-05|    0.036877|
+-----------------------------------------------------------------------+
|        File Writing Summary       |              Filename             |
+-----------------------------------------------------------------------+
|SU2 binary restart                 |restart_flow_G6.dat                |
|Paraview                           |flow_G6.vtu                        |
|Paraview surface                   |surface_flow_G6.vtu                |
+-----------------------------------------------------------------------+
+-----------------------------------------------------------------------------+
|  Inner_Iter|     Min CFL|     Max CFL|      rms[P]|  Cauchy[CD]|          CD|
+-----------------------------------------------------------------------------+
|        3410|  4.6686e+01|  4.6686e+01|   -8.943024|  2.7811e-05|    0.036851|
|        3420|  4.6686e+01|  4.6686e+01|   -8.944577|  2.7655e-05|    0.036825|
|        3430|  4.6686e+01|  4.6686e+01|   -8.946179|  2.7499e-05|    0.036800|
|        3440|  4.6686e+01|  4.6686e+01|   -8.947767|  2.7344e-05|    0.036774|
|        3450|  4.6686e+01|  4.6686e+01|   -8.949424|  2.7189e-05|    0.036749|
|        3460|  4.6686e+01|  4.6686e+01|   -8.951143|  2.7035e-05|    0.036724|
|        3470|  4.6686e+01|  4.6686e+01|   -8.952925|  2.6881e-05|    0.036698|
|        3480|  4.6686e+01|  4.6686e+01|   -8.954770|  2.6727e-05|    0.036674|
|        3490|  4.6686e+01|  4.6686e+01|   -8.956676|  2.6575e-05|    0.036649|
|        3500|  4.6686e+01|  4.6686e+01|   -8.958631|  2.6422e-05|    0.036624|
|        3510|  4.6686e+01|  4.6686e+01|   -8.960665|  2.6271e-05|    0.036600|
|        3520|  4.6686e+01|  4.6686e+01|   -8.962741|  2.6121e-05|    0.036575|
|        3530|  4.6686e+01|  4.6686e+01|   -8.964892|  2.5973e-05|    0.036551|
|        3540|  4.6686e+01|  4.6686e+01|   -8.967101|  2.5826e-05|    0.036527|
|        3550|  4.6686e+01|  4.6686e+01|   -8.969343|  2.5681e-05|    0.036503|
|        3560|  4.6686e+01|  4.6686e+01|   -8.971617|  2.5538e-05|    0.036479|
|        3570|  4.6686e+01|  4.6686e+01|   -8.973950|  2.5396e-05|    0.036455|
|        3580|  4.6686e+01|  4.6686e+01|   -8.976311|  2.5256e-05|    0.036431|
|        3590|  4.6686e+01|  4.6686e+01|   -8.978705|  2.5117e-05|    0.036408|
|        3600|  4.6686e+01|  4.6686e+01|   -8.981098|  2.4979e-05|    0.036384|
+-----------------------------------------------------------------------+
|        File Writing Summary       |              Filename             |
+-----------------------------------------------------------------------+
|SU2 binary restart                 |restart_flow_G6.dat                |
|Paraview                           |flow_G6.vtu                        |
|Paraview surface                   |surface_flow_G6.vtu                |
+-----------------------------------------------------------------------+
+-----------------------------------------------------------------------------+
|  Inner_Iter|     Min CFL|     Max CFL|      rms[P]|  Cauchy[CD]|          CD|
+-----------------------------------------------------------------------------+
|        3610|  4.6686e+01|  4.6686e+01|   -8.983490|  2.4843e-05|    0.036361|
|        3620|  4.6686e+01|  4.6686e+01|   -8.985878|  2.4708e-05|    0.036338|
|        3630|  4.6686e+01|  4.6686e+01|   -8.988248|  2.4574e-05|    0.036315|
|        3640|  4.6686e+01|  4.6686e+01|   -8.990579|  2.4442e-05|    0.036292|
|        3650|  4.6686e+01|  4.6686e+01|   -8.992892|  2.4311e-05|    0.036269|
|        3660|  4.6686e+01|  4.6686e+01|   -8.995162|  2.4181e-05|    0.036247|
|        3670|  4.6686e+01|  4.6686e+01|   -8.997450|  2.4051e-05|    0.036224|
|        3680|  4.6686e+01|  4.6686e+01|   -8.999700|  2.3922e-05|    0.036202|
|        3690|  4.6686e+01|  4.6686e+01|   -9.001924|  2.3792e-05|    0.036179|
|        3700|  4.6686e+01|  4.6686e+01|   -9.004081|  2.3663e-05|    0.036157|
|        3710|  4.6686e+01|  4.6686e+01|   -9.006195|  2.3534e-05|    0.036135|
|        3720|  4.6686e+01|  4.6686e+01|   -9.008271|  2.3406e-05|    0.036113|
|        3730|  4.6686e+01|  4.6686e+01|   -9.010343|  2.3277e-05|    0.036092|
|        3740|  4.6686e+01|  4.6686e+01|   -9.012363|  2.3148e-05|    0.036070|
|        3750|  4.6686e+01|  4.6686e+01|   -9.014325|  2.3020e-05|    0.036049|
|        3760|  4.6686e+01|  4.6686e+01|   -9.016257|  2.2891e-05|    0.036027|
|        3770|  4.6686e+01|  4.6686e+01|   -9.018138|  2.2762e-05|    0.036006|
|        3780|  4.6686e+01|  4.6686e+01|   -9.020014|  2.2633e-05|    0.035985|
|        3790|  4.6686e+01|  4.6686e+01|   -9.021877|  2.2504e-05|    0.035964|
|        3800|  4.6686e+01|  4.6686e+01|   -9.023733|  2.2375e-05|    0.035943|
+-----------------------------------------------------------------------+
|        File Writing Summary       |              Filename             |
+-----------------------------------------------------------------------+
|SU2 binary restart                 |restart_flow_G6.dat                |
|Paraview                           |flow_G6.vtu                        |
|Paraview surface                   |surface_flow_G6.vtu                |
+-----------------------------------------------------------------------+
+-----------------------------------------------------------------------------+
|  Inner_Iter|     Min CFL|     Max CFL|      rms[P]|  Cauchy[CD]|          CD|
+-----------------------------------------------------------------------------+
|        3810|  4.6686e+01|  4.6686e+01|   -9.025571|  2.2246e-05|    0.035923|
|        3820|  4.6686e+01|  4.6686e+01|   -9.027377|  2.2117e-05|    0.035902|
|        3830|  4.6686e+01|  4.6686e+01|   -9.029202|  2.1988e-05|    0.035882|
|        3840|  4.6686e+01|  4.6686e+01|   -9.031041|  2.1860e-05|    0.035861|
|        3850|  4.6686e+01|  4.6686e+01|   -9.032880|  2.1733e-05|    0.035841|
|        3860|  4.6686e+01|  4.6686e+01|   -9.034729|  2.1606e-05|    0.035821|
|        3870|  4.6686e+01|  4.6686e+01|   -9.036580|  2.1480e-05|    0.035801|
|        3880|  4.6686e+01|  4.6686e+01|   -9.038473|  2.1355e-05|    0.035781|
|        3890|  4.6686e+01|  4.6686e+01|   -9.040378|  2.1229e-05|    0.035761|
|        3900|  4.6686e+01|  4.6686e+01|   -9.042311|  2.1103e-05|    0.035742|
|        3910|  4.6686e+01|  4.6686e+01|   -9.044264|  2.0978e-05|    0.035722|
|        3920|  4.6686e+01|  4.6686e+01|   -9.046210|  2.0854e-05|    0.035703|
|        3930|  4.6686e+01|  4.6686e+01|   -9.048202|  2.0730e-05|    0.035683|
|        3940|  4.6686e+01|  4.6686e+01|   -9.050216|  2.0608e-05|    0.035664|
|        3950|  4.6686e+01|  4.6686e+01|   -9.052251|  2.0486e-05|    0.035645|
|        3960|  4.6686e+01|  4.6686e+01|   -9.054343|  2.0365e-05|    0.035626|
|        3970|  4.6686e+01|  4.6686e+01|   -9.056455|  2.0246e-05|    0.035607|
|        3980|  4.6686e+01|  4.6686e+01|   -9.058588|  2.0127e-05|    0.035588|
|        3990|  4.6686e+01|  4.6686e+01|   -9.060741|  2.0010e-05|    0.035570|
|        4000|  4.6686e+01|  4.6686e+01|   -9.062958|  1.9895e-05|    0.035551|
+-----------------------------------------------------------------------+
|        File Writing Summary       |              Filename             |
+-----------------------------------------------------------------------+
|SU2 binary restart                 |restart_flow_G6.dat                |
|Paraview                           |flow_G6.vtu                        |
|Paraview surface                   |surface_flow_G6.vtu                |
+-----------------------------------------------------------------------+
+-----------------------------------------------------------------------------+
|  Inner_Iter|     Min CFL|     Max CFL|      rms[P]|  Cauchy[CD]|          CD|
+-----------------------------------------------------------------------------+
|        4010|  4.6686e+01|  4.6686e+01|   -9.065214|  1.9781e-05|    0.035533|
|        4020|  4.6686e+01|  4.6686e+01|   -9.067474|  1.9668e-05|    0.035514|
|        4030|  4.6686e+01|  4.6686e+01|   -9.069768|  1.9557e-05|    0.035496|
|        4040|  4.6686e+01|  4.6686e+01|   -9.072058|  1.9447e-05|    0.035478|
|        4050|  4.6686e+01|  4.6686e+01|   -9.074368|  1.9338e-05|    0.035460|
|        4060|  4.6686e+01|  4.6686e+01|   -9.076672|  1.9231e-05|    0.035442|
|        4070|  4.6686e+01|  4.6686e+01|   -9.079009|  1.9124e-05|    0.035424|
|        4080|  4.6686e+01|  4.6686e+01|   -9.081326|  1.9018e-05|    0.035406|
|        4090|  4.6686e+01|  4.6686e+01|   -9.083616|  1.8912e-05|    0.035388|
|        4100|  4.6686e+01|  4.6686e+01|   -9.085894|  1.8807e-05|    0.035371|
|        4110|  4.6686e+01|  4.6686e+01|   -9.088147|  1.8701e-05|    0.035353|
|        4120|  4.6686e+01|  4.6686e+01|   -9.090406|  1.8596e-05|    0.035336|
|        4130|  4.6686e+01|  4.6686e+01|   -9.092652|  1.8491e-05|    0.035319|
|        4140|  4.6686e+01|  4.6686e+01|   -9.094876|  1.8387e-05|    0.035302|
|        4150|  4.6686e+01|  4.6686e+01|   -9.097076|  1.8282e-05|    0.035285|
|        4160|  4.6686e+01|  4.6686e+01|   -9.099268|  1.8178e-05|    0.035268|
|        4170|  4.6686e+01|  4.6686e+01|   -9.101452|  1.8075e-05|    0.035251|
|        4180|  4.6686e+01|  4.6686e+01|   -9.103620|  1.7971e-05|    0.035234|
|        4190|  4.6686e+01|  4.6686e+01|   -9.105760|  1.7868e-05|    0.035217|
|        4200|  4.6686e+01|  4.6686e+01|   -9.107910|  1.7766e-05|    0.035201|
+-----------------------------------------------------------------------+
|        File Writing Summary       |              Filename             |
+-----------------------------------------------------------------------+
|SU2 binary restart                 |restart_flow_G6.dat                |
|Paraview                           |flow_G6.vtu                        |
|Paraview surface                   |surface_flow_G6.vtu                |
+-----------------------------------------------------------------------+
+-----------------------------------------------------------------------------+
|  Inner_Iter|     Min CFL|     Max CFL|      rms[P]|  Cauchy[CD]|          CD|
+-----------------------------------------------------------------------------+
|        4210|  4.6686e+01|  4.6686e+01|   -9.110052|  1.7663e-05|    0.035184|
|        4220|  4.6686e+01|  4.6686e+01|   -9.112198|  1.7561e-05|    0.035168|
|        4230|  4.6686e+01|  4.6686e+01|   -9.114321|  1.7460e-05|    0.035152|
|        4240|  4.6686e+01|  4.6686e+01|   -9.116457|  1.7359e-05|    0.035136|
|        4250|  4.6686e+01|  4.6686e+01|   -9.118562|  1.7258e-05|    0.035120|
|        4260|  4.6686e+01|  4.6686e+01|   -9.120672|  1.7157e-05|    0.035104|
|        4270|  4.6686e+01|  4.6686e+01|   -9.122766|  1.7057e-05|    0.035088|
|        4280|  4.6686e+01|  4.6686e+01|   -9.124875|  1.6956e-05|    0.035072|
|        4290|  4.6686e+01|  4.6686e+01|   -9.126984|  1.6856e-05|    0.035056|
|        4300|  4.6686e+01|  4.6686e+01|   -9.129103|  1.6756e-05|    0.035041|
|        4310|  4.6686e+01|  4.6686e+01|   -9.131228|  1.6656e-05|    0.035025|
|        4320|  4.6686e+01|  4.6686e+01|   -9.133365|  1.6556e-05|    0.035010|
|        4330|  4.6686e+01|  4.6686e+01|   -9.135489|  1.6457e-05|    0.034995|
|        4340|  4.6686e+01|  4.6686e+01|   -9.137607|  1.6358e-05|    0.034980|
|        4350|  4.6686e+01|  4.6686e+01|   -9.139723|  1.6260e-05|    0.034964|
|        4360|  4.6686e+01|  4.6686e+01|   -9.141867|  1.6162e-05|    0.034949|
|        4370|  4.6686e+01|  4.6686e+01|   -9.144048|  1.6066e-05|    0.034934|
|        4380|  4.6686e+01|  4.6686e+01|   -9.146248|  1.5970e-05|    0.034920|
|        4390|  4.6686e+01|  4.6686e+01|   -9.148424|  1.5875e-05|    0.034905|
|        4400|  4.6686e+01|  4.6686e+01|   -9.150633|  1.5781e-05|    0.034890|
+-----------------------------------------------------------------------+
|        File Writing Summary       |              Filename             |
+-----------------------------------------------------------------------+
|SU2 binary restart                 |restart_flow_G6.dat                |
|Paraview                           |flow_G6.vtu                        |
|Paraview surface                   |surface_flow_G6.vtu                |
+-----------------------------------------------------------------------+
+-----------------------------------------------------------------------------+
|  Inner_Iter|     Min CFL|     Max CFL|      rms[P]|  Cauchy[CD]|          CD|
+-----------------------------------------------------------------------------+
|        4410|  4.6686e+01|  4.6686e+01|   -9.152837|  1.5688e-05|    0.034875|
|        4420|  4.6686e+01|  4.6686e+01|   -9.155068|  1.5596e-05|    0.034861|
|        4430|  4.6686e+01|  4.6686e+01|   -9.157328|  1.5505e-05|    0.034846|
|        4440|  4.6686e+01|  4.6686e+01|   -9.159597|  1.5415e-05|    0.034832|
|        4450|  4.6686e+01|  4.6686e+01|   -9.161878|  1.5326e-05|    0.034818|
|        4460|  4.6686e+01|  4.6686e+01|   -9.164174|  1.5237e-05|    0.034804|
|        4470|  4.6686e+01|  4.6686e+01|   -9.166492|  1.5149e-05|    0.034789|
|        4480|  4.6686e+01|  4.6686e+01|   -9.168830|  1.5062e-05|    0.034775|
|        4490|  4.6686e+01|  4.6686e+01|   -9.171169|  1.4975e-05|    0.034761|
|        4500|  4.6686e+01|  4.6686e+01|   -9.173507|  1.4889e-05|    0.034748|
|        4510|  4.6686e+01|  4.6686e+01|   -9.175838|  1.4803e-05|    0.034734|
|        4520|  4.6686e+01|  4.6686e+01|   -9.178193|  1.4717e-05|    0.034720|
|        4530|  4.6686e+01|  4.6686e+01|   -9.180516|  1.4631e-05|    0.034706|
|        4540|  4.6686e+01|  4.6686e+01|   -9.182829|  1.4546e-05|    0.034693|
|        4550|  4.6686e+01|  4.6686e+01|   -9.185121|  1.4461e-05|    0.034679|
|        4560|  4.6686e+01|  4.6686e+01|   -9.187417|  1.4377e-05|    0.034666|
|        4570|  4.6686e+01|  4.6686e+01|   -9.189711|  1.4292e-05|    0.034653|
|        4580|  4.6686e+01|  4.6686e+01|   -9.192022|  1.4208e-05|    0.034640|
|        4590|  4.6686e+01|  4.6686e+01|   -9.194327|  1.4125e-05|    0.034626|
|        4600|  4.6686e+01|  4.6686e+01|   -9.196613|  1.4041e-05|    0.034613|
+-----------------------------------------------------------------------+
|        File Writing Summary       |              Filename             |
+-----------------------------------------------------------------------+
|SU2 binary restart                 |restart_flow_G6.dat                |
|Paraview                           |flow_G6.vtu                        |
|Paraview surface                   |surface_flow_G6.vtu                |
+-----------------------------------------------------------------------+
+-----------------------------------------------------------------------------+
|  Inner_Iter|     Min CFL|     Max CFL|      rms[P]|  Cauchy[CD]|          CD|
+-----------------------------------------------------------------------------+
|        4610|  4.6686e+01|  4.6686e+01|   -9.198893|  1.3959e-05|    0.034600|
|        4620|  4.6686e+01|  4.6686e+01|   -9.201151|  1.3876e-05|    0.034587|
|        4630|  4.6686e+01|  4.6686e+01|   -9.203407|  1.3794e-05|    0.034575|
|        4640|  4.6686e+01|  4.6686e+01|   -9.205672|  1.3713e-05|    0.034562|
|        4650|  4.6686e+01|  4.6686e+01|   -9.207914|  1.3633e-05|    0.034549|
|        4660|  4.6686e+01|  4.6686e+01|   -9.210175|  1.3552e-05|    0.034537|
|        4670|  4.6686e+01|  4.6686e+01|   -9.212453|  1.3472e-05|    0.034524|
|        4680|  4.6686e+01|  4.6686e+01|   -9.214731|  1.3393e-05|    0.034512|
|        4690|  4.6686e+01|  4.6686e+01|   -9.217010|  1.3313e-05|    0.034499|
|        4700|  4.6686e+01|  4.6686e+01|   -9.219296|  1.3235e-05|    0.034487|
|        4710|  4.6686e+01|  4.6686e+01|   -9.221549|  1.3156e-05|    0.034475|
|        4720|  4.6686e+01|  4.6686e+01|   -9.223803|  1.3078e-05|    0.034462|
|        4730|  4.6686e+01|  4.6686e+01|   -9.226056|  1.3001e-05|    0.034450|
|        4740|  4.6686e+01|  4.6686e+01|   -9.228329|  1.2924e-05|    0.034438|
|        4750|  4.6686e+01|  4.6686e+01|   -9.230613|  1.2848e-05|    0.034426|
|        4760|  4.6686e+01|  4.6686e+01|   -9.232897|  1.2771e-05|    0.034414|
|        4770|  4.6686e+01|  4.6686e+01|   -9.235212|  1.2695e-05|    0.034403|
|        4780|  4.6686e+01|  4.6686e+01|   -9.237513|  1.2619e-05|    0.034391|
|        4790|  4.6686e+01|  4.6686e+01|   -9.239821|  1.2544e-05|    0.034379|
|        4800|  4.6686e+01|  4.6686e+01|   -9.242130|  1.2470e-05|    0.034368|
+-----------------------------------------------------------------------+
|        File Writing Summary       |              Filename             |
+-----------------------------------------------------------------------+
|SU2 binary restart                 |restart_flow_G6.dat                |
|Paraview                           |flow_G6.vtu                        |
|Paraview surface                   |surface_flow_G6.vtu                |
+-----------------------------------------------------------------------+
+-----------------------------------------------------------------------------+
|  Inner_Iter|     Min CFL|     Max CFL|      rms[P]|  Cauchy[CD]|          CD|
+-----------------------------------------------------------------------------+
|        4810|  4.6686e+01|  4.6686e+01|   -9.244445|  1.2395e-05|    0.034356|
|        4820|  4.6686e+01|  4.6686e+01|   -9.246768|  1.2322e-05|    0.034345|
|        4830|  4.6686e+01|  4.6686e+01|   -9.249109|  1.2248e-05|    0.034333|
|        4840|  4.6686e+01|  4.6686e+01|   -9.251460|  1.2175e-05|    0.034322|
|        4850|  4.6686e+01|  4.6686e+01|   -9.253802|  1.2103e-05|    0.034311|
|        4860|  4.6686e+01|  4.6686e+01|   -9.256165|  1.2030e-05|    0.034300|
|        4870|  4.6686e+01|  4.6686e+01|   -9.258539|  1.1959e-05|    0.034289|
|        4880|  4.6686e+01|  4.6686e+01|   -9.260926|  1.1887e-05|    0.034277|
|        4890|  4.6686e+01|  4.6686e+01|   -9.263299|  1.1815e-05|    0.034267|
|        4900|  4.6686e+01|  4.6686e+01|   -9.265677|  1.1744e-05|    0.034256|
|        4910|  4.6686e+01|  4.6686e+01|   -9.268078|  1.1674e-05|    0.034245|
|        4920|  4.6686e+01|  4.6686e+01|   -9.270453|  1.1604e-05|    0.034234|
|        4930|  4.6686e+01|  4.6686e+01|   -9.272850|  1.1535e-05|    0.034223|
|        4940|  4.6686e+01|  4.6686e+01|   -9.275249|  1.1466e-05|    0.034213|
|        4950|  4.6686e+01|  4.6686e+01|   -9.277651|  1.1398e-05|    0.034202|
|        4960|  4.6686e+01|  4.6686e+01|   -9.280034|  1.1330e-05|    0.034191|
|        4970|  4.6686e+01|  4.6686e+01|   -9.282406|  1.1263e-05|    0.034181|
|        4980|  4.6686e+01|  4.6686e+01|   -9.284766|  1.1196e-05|    0.034170|
|        4990|  4.6686e+01|  4.6686e+01|   -9.287134|  1.1129e-05|    0.034160|
|        5000|  4.6686e+01|  4.6686e+01|   -9.289490|  1.1063e-05|    0.034150|
+-----------------------------------------------------------------------+
|        File Writing Summary       |              Filename             |
+-----------------------------------------------------------------------+
|SU2 binary restart                 |restart_flow_G6.dat                |
|Paraview                           |flow_G6.vtu                        |
|Paraview surface                   |surface_flow_G6.vtu                |
+-----------------------------------------------------------------------+
+-----------------------------------------------------------------------------+
|  Inner_Iter|     Min CFL|     Max CFL|      rms[P]|  Cauchy[CD]|          CD|
+-----------------------------------------------------------------------------+
|        5010|  4.6686e+01|  4.6686e+01|   -9.291847|  1.0998e-05|    0.034140|
|        5020|  4.6686e+01|  4.6686e+01|   -9.294218|  1.0933e-05|    0.034129|
|        5030|  4.6686e+01|  4.6686e+01|   -9.296586|  1.0869e-05|    0.034119|
|        5040|  4.6686e+01|  4.6686e+01|   -9.298967|  1.0806e-05|    0.034109|
|        5050|  4.6686e+01|  4.6686e+01|   -9.301353|  1.0742e-05|    0.034099|
|        5060|  4.6686e+01|  4.6686e+01|   -9.303729|  1.0680e-05|    0.034089|
|        5070|  4.6686e+01|  4.6686e+01|   -9.306110|  1.0617e-05|    0.034079|
|        5080|  4.6686e+01|  4.6686e+01|   -9.308459|  1.0555e-05|    0.034069|
|        5090|  4.6686e+01|  4.6686e+01|   -9.310833|  1.0493e-05|    0.034060|
|        5100|  4.6686e+01|  4.6686e+01|   -9.313244|  1.0432e-05|    0.034050|
|        5110|  4.6686e+01|  4.6686e+01|   -9.315659|  1.0370e-05|    0.034040|
|        5120|  4.6686e+01|  4.6686e+01|   -9.318077|  1.0309e-05|    0.034031|
|        5130|  4.6686e+01|  4.6686e+01|   -9.320486|  1.0248e-05|    0.034021|
|        5140|  4.6686e+01|  4.6686e+01|   -9.322873|  1.0187e-05|    0.034012|
|        5150|  4.6686e+01|  4.6686e+01|   -9.325249|  1.0126e-05|    0.034002|
|        5160|  4.6686e+01|  4.6686e+01|   -9.327631|  1.0065e-05|    0.033993|
|        5170|  4.6686e+01|  4.6686e+01|   -9.330039|  1.0004e-05|    0.033984|
|        5180|  4.6686e+01|  4.6686e+01|   -9.332482|  9.9429e-06|    0.033975|
|        5190|  4.6686e+01|  4.6686e+01|   -9.334935|  9.8822e-06|    0.033966|
|        5200|  4.6686e+01|  4.6686e+01|   -9.337372|  9.8217e-06|    0.033956|
+-----------------------------------------------------------------------+
|        File Writing Summary       |              Filename             |
+-----------------------------------------------------------------------+
|SU2 binary restart                 |restart_flow_G6.dat                |
|Paraview                           |flow_G6.vtu                        |
|Paraview surface                   |surface_flow_G6.vtu                |
+-----------------------------------------------------------------------+
+-----------------------------------------------------------------------------+
|  Inner_Iter|     Min CFL|     Max CFL|      rms[P]|  Cauchy[CD]|          CD|
+-----------------------------------------------------------------------------+
|        5210|  4.6686e+01|  4.6686e+01|   -9.339801|  9.7614e-06|    0.033947|
|        5220|  4.6686e+01|  4.6686e+01|   -9.342212|  9.7013e-06|    0.033938|
|        5230|  4.6686e+01|  4.6686e+01|   -9.344633|  9.6414e-06|    0.033929|
|        5240|  4.6686e+01|  4.6686e+01|   -9.347055|  9.5820e-06|    0.033921|
|        5250|  4.6686e+01|  4.6686e+01|   -9.349482|  9.5229e-06|    0.033912|
|        5260|  4.6686e+01|  4.6686e+01|   -9.351918|  9.4642e-06|    0.033903|
|        5270|  4.6686e+01|  4.6686e+01|   -9.354357|  9.4059e-06|    0.033894|
|        5280|  4.6686e+01|  4.6686e+01|   -9.356785|  9.3481e-06|    0.033885|
|        5290|  4.6686e+01|  4.6686e+01|   -9.359199|  9.2908e-06|    0.033877|
|        5300|  4.6686e+01|  4.6686e+01|   -9.361600|  9.2342e-06|    0.033868|
|        5310|  4.6686e+01|  4.6686e+01|   -9.364026|  9.1784e-06|    0.033860|
|        5320|  4.6686e+01|  4.6686e+01|   -9.366444|  9.1233e-06|    0.033851|
|        5330|  4.6686e+01|  4.6686e+01|   -9.368896|  9.0690e-06|    0.033843|
|        5340|  4.6686e+01|  4.6686e+01|   -9.371372|  9.0152e-06|    0.033834|
|        5350|  4.6686e+01|  4.6686e+01|   -9.373853|  8.9620e-06|    0.033826|
|        5360|  4.6686e+01|  4.6686e+01|   -9.376343|  8.9093e-06|    0.033818|
|        5370|  4.6686e+01|  4.6686e+01|   -9.378812|  8.8572e-06|    0.033809|
|        5380|  4.6686e+01|  4.6686e+01|   -9.381269|  8.8057e-06|    0.033801|
|        5390|  4.6686e+01|  4.6686e+01|   -9.383725|  8.7546e-06|    0.033793|
|        5400|  4.6686e+01|  4.6686e+01|   -9.386196|  8.7038e-06|    0.033785|
+-----------------------------------------------------------------------+
|        File Writing Summary       |              Filename             |
+-----------------------------------------------------------------------+
|SU2 binary restart                 |restart_flow_G6.dat                |
|Paraview                           |flow_G6.vtu                        |
|Paraview surface                   |surface_flow_G6.vtu                |
+-----------------------------------------------------------------------+
+-----------------------------------------------------------------------------+
|  Inner_Iter|     Min CFL|     Max CFL|      rms[P]|  Cauchy[CD]|          CD|
+-----------------------------------------------------------------------------+
|        5410|  4.6686e+01|  4.6686e+01|   -9.388699|  8.6533e-06|    0.033777|
|        5420|  4.6686e+01|  4.6686e+01|   -9.391167|  8.6029e-06|    0.033769|
|        5430|  4.6686e+01|  4.6686e+01|   -9.393636|  8.5525e-06|    0.033761|
|        5440|  4.6686e+01|  4.6686e+01|   -9.396114|  8.5021e-06|    0.033753|
|        5450|  4.6686e+01|  4.6686e+01|   -9.398580|  8.4517e-06|    0.033745|
|        5460|  4.6686e+01|  4.6686e+01|   -9.401031|  8.4014e-06|    0.033737|
|        5470|  4.6686e+01|  4.6686e+01|   -9.403474|  8.3513e-06|    0.033730|
|        5480|  4.6686e+01|  4.6686e+01|   -9.405938|  8.3014e-06|    0.033722|
|        5490|  4.6686e+01|  4.6686e+01|   -9.408430|  8.2516e-06|    0.033714|
|        5500|  4.6686e+01|  4.6686e+01|   -9.410931|  8.2019e-06|    0.033707|
|        5510|  4.6686e+01|  4.6686e+01|   -9.413432|  8.1522e-06|    0.033699|
|        5520|  4.6686e+01|  4.6686e+01|   -9.415917|  8.1027e-06|    0.033692|
|        5530|  4.6686e+01|  4.6686e+01|   -9.418384|  8.0533e-06|    0.033684|
|        5540|  4.6686e+01|  4.6686e+01|   -9.420843|  8.0039e-06|    0.033677|
|        5550|  4.6686e+01|  4.6686e+01|   -9.423300|  7.9546e-06|    0.033669|
|        5560|  4.6686e+01|  4.6686e+01|   -9.425773|  7.9052e-06|    0.033662|
|        5570|  4.6686e+01|  4.6686e+01|   -9.428279|  7.8560e-06|    0.033655|
|        5580|  4.6686e+01|  4.6686e+01|   -9.430797|  7.8068e-06|    0.033648|
|        5590|  4.6686e+01|  4.6686e+01|   -9.433318|  7.7579e-06|    0.033640|
|        5600|  4.6686e+01|  4.6686e+01|   -9.435836|  7.7094e-06|    0.033633|
+-----------------------------------------------------------------------+
|        File Writing Summary       |              Filename             |
+-----------------------------------------------------------------------+
|SU2 binary restart                 |restart_flow_G6.dat                |
|Paraview                           |flow_G6.vtu                        |
|Paraview surface                   |surface_flow_G6.vtu                |
+-----------------------------------------------------------------------+
+-----------------------------------------------------------------------------+
|  Inner_Iter|     Min CFL|     Max CFL|      rms[P]|  Cauchy[CD]|          CD|
+-----------------------------------------------------------------------------+
|        5610|  4.6686e+01|  4.6686e+01|   -9.438336|  7.6612e-06|    0.033626|
|        5620|  4.6686e+01|  4.6686e+01|   -9.440813|  7.6134e-06|    0.033619|
|        5630|  4.6686e+01|  4.6686e+01|   -9.443285|  7.5659e-06|    0.033612|
|        5640|  4.6686e+01|  4.6686e+01|   -9.445764|  7.5188e-06|    0.033605|
|        5650|  4.6686e+01|  4.6686e+01|   -9.448280|  7.4721e-06|    0.033598|
|        5660|  4.6686e+01|  4.6686e+01|   -9.450828|  7.4257e-06|    0.033591|
|        5670|  4.6686e+01|  4.6686e+01|   -9.453395|  7.3799e-06|    0.033584|
|        5680|  4.6686e+01|  4.6686e+01|   -9.455958|  7.3346e-06|    0.033578|
|        5690|  4.6686e+01|  4.6686e+01|   -9.458508|  7.2898e-06|    0.033571|
|        5700|  4.6686e+01|  4.6686e+01|   -9.461045|  7.2455e-06|    0.033564|
|        5710|  4.6686e+01|  4.6686e+01|   -9.463572|  7.2017e-06|    0.033557|
|        5720|  4.6686e+01|  4.6686e+01|   -9.466097|  7.1584e-06|    0.033551|
|        5730|  4.6686e+01|  4.6686e+01|   -9.468631|  7.1154e-06|    0.033544|
[...]
|        7350|  4.6686e+01|  4.6686e+01|   -9.895337|  2.6105e-06|    0.032868|
|        7360|  4.6686e+01|  4.6686e+01|   -9.898039|  2.5942e-06|    0.032866|
|        7370|  4.6686e+01|  4.6686e+01|   -9.900751|  2.5780e-06|    0.032864|
|        7380|  4.6686e+01|  4.6686e+01|   -9.903465|  2.5619e-06|    0.032861|
|        7390|  4.6686e+01|  4.6686e+01|   -9.906185|  2.5459e-06|    0.032859|
|        7400|  4.6686e+01|  4.6686e+01|   -9.908910|  2.5300e-06|    0.032857|
+-----------------------------------------------------------------------+
|        File Writing Summary       |              Filename             |
+-----------------------------------------------------------------------+
|SU2 binary restart                 |restart_flow_G6.dat                |
|Paraview                           |flow_G6.vtu                        |
|Paraview surface                   |surface_flow_G6.vtu                |
+-----------------------------------------------------------------------+
+-----------------------------------------------------------------------------+
|  Inner_Iter|     Min CFL|     Max CFL|      rms[P]|  Cauchy[CD]|          CD|
+-----------------------------------------------------------------------------+
|        7410|  4.6686e+01|  4.6686e+01|   -9.911639|  2.5142e-06|    0.032854|
|        7420|  4.6686e+01|  4.6686e+01|   -9.914355|  2.4984e-06|    0.032852|
|        7430|  4.6686e+01|  4.6686e+01|   -9.917091|  2.4828e-06|    0.032850|
|        7440|  4.6686e+01|  4.6686e+01|   -9.919827|  2.4673e-06|    0.032847|
|        7450|  4.6686e+01|  4.6686e+01|   -9.922568|  2.4518e-06|    0.032845|
|        7460|  4.6686e+01|  4.6686e+01|   -9.925298|  2.4364e-06|    0.032843|
|        7470|  4.6686e+01|  4.6686e+01|   -9.928039|  2.4211e-06|    0.032841|
|        7480|  4.6686e+01|  4.6686e+01|   -9.930779|  2.4058e-06|    0.032838|
|        7490|  4.6686e+01|  4.6686e+01|   -9.933515|  2.3907e-06|    0.032836|
|        7500|  4.6686e+01|  4.6686e+01|   -9.936259|  2.3756e-06|    0.032834|
|        7510|  4.6686e+01|  4.6686e+01|   -9.939005|  2.3605e-06|    0.032832|
|        7520|  4.6686e+01|  4.6686e+01|   -9.941752|  2.3456e-06|    0.032830|
|        7530|  4.6686e+01|  4.6686e+01|   -9.944496|  2.3308e-06|    0.032827|
|        7540|  4.6686e+01|  4.6686e+01|   -9.947228|  2.3161e-06|    0.032825|
|        7550|  4.6686e+01|  4.6686e+01|   -9.949962|  2.3015e-06|    0.032823|
|        7560|  4.6686e+01|  4.6686e+01|   -9.952693|  2.2870e-06|    0.032821|
|        7570|  4.6686e+01|  4.6686e+01|   -9.955428|  2.2726e-06|    0.032819|
|        7580|  4.6686e+01|  4.6686e+01|   -9.958167|  2.2583e-06|    0.032817|
|        7590|  4.6686e+01|  4.6686e+01|   -9.960904|  2.2441e-06|    0.032815|
|        7600|  4.6686e+01|  4.6686e+01|   -9.963646|  2.2300e-06|    0.032813|
+-----------------------------------------------------------------------+
|        File Writing Summary       |              Filename             |
+-----------------------------------------------------------------------+
|SU2 binary restart                 |restart_flow_G6.dat                |
|Paraview                           |flow_G6.vtu                        |
|Paraview surface                   |surface_flow_G6.vtu                |
+-----------------------------------------------------------------------+
+-----------------------------------------------------------------------------+
|  Inner_Iter|     Min CFL|     Max CFL|      rms[P]|  Cauchy[CD]|          CD|
+-----------------------------------------------------------------------------+
|        7610|  4.6686e+01|  4.6686e+01|   -9.966386|  2.2160e-06|    0.032811|
|        7620|  4.6686e+01|  4.6686e+01|   -9.969121|  2.2021e-06|    0.032809|
|        7630|  4.6686e+01|  4.6686e+01|   -9.971854|  2.1883e-06|    0.032807|
|        7640|  4.6686e+01|  4.6686e+01|   -9.974573|  2.1746e-06|    0.032805|
|        7650|  4.6686e+01|  4.6686e+01|   -9.977288|  2.1609e-06|    0.032803|
|        7660|  4.6686e+01|  4.6686e+01|   -9.980005|  2.1474e-06|    0.032801|
|        7670|  4.6686e+01|  4.6686e+01|   -9.982723|  2.1340e-06|    0.032799|
|        7680|  4.6686e+01|  4.6686e+01|   -9.985440|  2.1206e-06|    0.032797|
|        7690|  4.6686e+01|  4.6686e+01|   -9.988158|  2.1073e-06|    0.032795|
|        7700|  4.6686e+01|  4.6686e+01|   -9.990876|  2.0941e-06|    0.032793|
|        7710|  4.6686e+01|  4.6686e+01|   -9.993595|  2.0809e-06|    0.032791|
|        7720|  4.6686e+01|  4.6686e+01|   -9.996315|  2.0678e-06|    0.032789|
|        7730|  4.6686e+01|  4.6686e+01|   -9.999030|  2.0549e-06|    0.032787|
|        7740|  4.6686e+01|  4.6686e+01|  -10.001753|  2.0420e-06|    0.032785|
|        7750|  4.6686e+01|  4.6686e+01|  -10.004489|  2.0292e-06|    0.032783|
|        7760|  4.6686e+01|  4.6686e+01|  -10.007227|  2.0164e-06|    0.032781|
|        7770|  4.6686e+01|  4.6686e+01|  -10.009965|  2.0038e-06|    0.032779|
|        7780|  4.6686e+01|  4.6686e+01|  -10.012697|  1.9912e-06|    0.032778|
|        7790|  4.6686e+01|  4.6686e+01|  -10.015428|  1.9788e-06|    0.032776|
|        7800|  4.6686e+01|  4.6686e+01|  -10.018161|  1.9664e-06|    0.032774|
+-----------------------------------------------------------------------+
|        File Writing Summary       |              Filename             |
+-----------------------------------------------------------------------+
|SU2 binary restart                 |restart_flow_G6.dat                |
|Paraview                           |flow_G6.vtu                        |
|Paraview surface                   |surface_flow_G6.vtu                |
+-----------------------------------------------------------------------+
+-----------------------------------------------------------------------------+
|  Inner_Iter|     Min CFL|     Max CFL|      rms[P]|  Cauchy[CD]|          CD|
+-----------------------------------------------------------------------------+
|        7810|  4.6686e+01|  4.6686e+01|  -10.020898|  1.9540e-06|    0.032772|
|        7820|  4.6686e+01|  4.6686e+01|  -10.023640|  1.9418e-06|    0.032770|
|        7830|  4.6686e+01|  4.6686e+01|  -10.026385|  1.9296e-06|    0.032769|
|        7840|  4.6686e+01|  4.6686e+01|  -10.029126|  1.9175e-06|    0.032767|
|        7850|  4.6686e+01|  4.6686e+01|  -10.031866|  1.9055e-06|    0.032765|
|        7860|  4.6686e+01|  4.6686e+01|  -10.034610|  1.8935e-06|    0.032763|
|        7870|  4.6686e+01|  4.6686e+01|  -10.037354|  1.8817e-06|    0.032762|
|        7880|  4.6686e+01|  4.6686e+01|  -10.040099|  1.8699e-06|    0.032760|
|        7890|  4.6686e+01|  4.6686e+01|  -10.042848|  1.8582e-06|    0.032758|
|        7900|  4.6686e+01|  4.6686e+01|  -10.045603|  1.8465e-06|    0.032756|
|        7910|  4.6686e+01|  4.6686e+01|  -10.048359|  1.8350e-06|    0.032755|
|        7920|  4.6686e+01|  4.6686e+01|  -10.051116|  1.8234e-06|    0.032753|
|        7930|  4.6686e+01|  4.6686e+01|  -10.053872|  1.8120e-06|    0.032751|
|        7940|  4.6686e+01|  4.6686e+01|  -10.056634|  1.8006e-06|    0.032750|
|        7950|  4.6686e+01|  4.6686e+01|  -10.059402|  1.7893e-06|    0.032748|
|        7960|  4.6686e+01|  4.6686e+01|  -10.062173|  1.7781e-06|    0.032746|
|        7970|  4.6686e+01|  4.6686e+01|  -10.064946|  1.7670e-06|    0.032745|
|        7980|  4.6686e+01|  4.6686e+01|  -10.067723|  1.7559e-06|    0.032743|
|        7990|  4.6686e+01|  4.6686e+01|  -10.070497|  1.7449e-06|    0.032741|
|        8000|  4.6686e+01|  4.6686e+01|  -10.073269|  1.7339e-06|    0.032740|
+-----------------------------------------------------------------------+
|        File Writing Summary       |              Filename             |
+-----------------------------------------------------------------------+
|SU2 binary restart                 |restart_flow_G6.dat                |
|Paraview                           |flow_G6.vtu                        |
|Paraview surface                   |surface_flow_G6.vtu                |
+-----------------------------------------------------------------------+
+-----------------------------------------------------------------------------+
|  Inner_Iter|     Min CFL|     Max CFL|      rms[P]|  Cauchy[CD]|          CD|
+-----------------------------------------------------------------------------+
|        8010|  4.6686e+01|  4.6686e+01|  -10.076043|  1.7230e-06|    0.032738|
|        8020|  4.6686e+01|  4.6686e+01|  -10.078813|  1.7122e-06|    0.032737|
|        8030|  4.6686e+01|  4.6686e+01|  -10.081583|  1.7014e-06|    0.032735|
|        8040|  4.6686e+01|  4.6686e+01|  -10.084355|  1.6907e-06|    0.032734|
|        8050|  4.6686e+01|  4.6686e+01|  -10.087129|  1.6801e-06|    0.032732|
|        8060|  4.6686e+01|  4.6686e+01|  -10.089899|  1.6695e-06|    0.032730|
|        8070|  4.6686e+01|  4.6686e+01|  -10.092676|  1.6590e-06|    0.032729|
|        8080|  4.6686e+01|  4.6686e+01|  -10.095418|  1.6485e-06|    0.032727|
|        8090|  4.6686e+01|  4.6686e+01|  -10.098176|  1.6381e-06|    0.032726|
|        8100|  4.6686e+01|  4.6686e+01|  -10.100934|  1.6278e-06|    0.032724|
|        8110|  4.6686e+01|  4.6686e+01|  -10.103690|  1.6175e-06|    0.032723|
|        8120|  4.6686e+01|  4.6686e+01|  -10.106446|  1.6073e-06|    0.032721|
|        8130|  4.6686e+01|  4.6686e+01|  -10.109205|  1.5971e-06|    0.032720|
|        8140|  4.6686e+01|  4.6686e+01|  -10.111968|  1.5870e-06|    0.032718|
|        8150|  4.6686e+01|  4.6686e+01|  -10.114735|  1.5769e-06|    0.032717|
|        8160|  4.6686e+01|  4.6686e+01|  -10.117498|  1.5669e-06|    0.032715|
|        8170|  4.6686e+01|  4.6686e+01|  -10.120257|  1.5570e-06|    0.032714|
|        8180|  4.6686e+01|  4.6686e+01|  -10.123008|  1.5471e-06|    0.032713|
|        8190|  4.6686e+01|  4.6686e+01|  -10.125750|  1.5373e-06|    0.032711|
|        8200|  4.6686e+01|  4.6686e+01|  -10.128497|  1.5275e-06|    0.032710|
+-----------------------------------------------------------------------+
|        File Writing Summary       |              Filename             |
+-----------------------------------------------------------------------+
|SU2 binary restart                 |restart_flow_G6.dat                |
|Paraview                           |flow_G6.vtu                        |
|Paraview surface                   |surface_flow_G6.vtu                |
+-----------------------------------------------------------------------+
+-----------------------------------------------------------------------------+
|  Inner_Iter|     Min CFL|     Max CFL|      rms[P]|  Cauchy[CD]|          CD|
+-----------------------------------------------------------------------------+
|        8210|  4.6686e+01|  4.6686e+01|  -10.131249|  1.5179e-06|    0.032708|
|        8220|  4.6686e+01|  4.6686e+01|  -10.134007|  1.5082e-06|    0.032707|
|        8230|  4.6686e+01|  4.6686e+01|  -10.136767|  1.4987e-06|    0.032706|
|        8240|  4.6686e+01|  4.6686e+01|  -10.139534|  1.4891e-06|    0.032704|
|        8250|  4.6686e+01|  4.6686e+01|  -10.142301|  1.4796e-06|    0.032703|
|        8260|  4.6686e+01|  4.6686e+01|  -10.145063|  1.4702e-06|    0.032701|
|        8270|  4.6686e+01|  4.6686e+01|  -10.147819|  1.4608e-06|    0.032700|
|        8280|  4.6686e+01|  4.6686e+01|  -10.150582|  1.4515e-06|    0.032699|
|        8290|  4.6686e+01|  4.6686e+01|  -10.153344|  1.4422e-06|    0.032697|
|        8300|  4.6686e+01|  4.6686e+01|  -10.156112|  1.4330e-06|    0.032696|
|        8310|  4.6686e+01|  4.6686e+01|  -10.158887|  1.4238e-06|    0.032695|
|        8320|  4.6686e+01|  4.6686e+01|  -10.161663|  1.4147e-06|    0.032694|
|        8330|  4.6686e+01|  4.6686e+01|  -10.164444|  1.4056e-06|    0.032692|
|        8340|  4.6686e+01|  4.6686e+01|  -10.167215|  1.3965e-06|    0.032691|
|        8350|  4.6686e+01|  4.6686e+01|  -10.169980|  1.3875e-06|    0.032690|
|        8360|  4.6686e+01|  4.6686e+01|  -10.172739|  1.3786e-06|    0.032688|
|        8370|  4.6686e+01|  4.6686e+01|  -10.175498|  1.3697e-06|    0.032687|
|        8380|  4.6686e+01|  4.6686e+01|  -10.178261|  1.3609e-06|    0.032686|
|        8390|  4.6686e+01|  4.6686e+01|  -10.181023|  1.3521e-06|    0.032685|
|        8400|  4.6686e+01|  4.6686e+01|  -10.183788|  1.3433e-06|    0.032683|
+-----------------------------------------------------------------------+
|        File Writing Summary       |              Filename             |
+-----------------------------------------------------------------------+
|SU2 binary restart                 |restart_flow_G6.dat                |
|Paraview                           |flow_G6.vtu                        |
|Paraview surface                   |surface_flow_G6.vtu                |
+-----------------------------------------------------------------------+
+-----------------------------------------------------------------------------+
|  Inner_Iter|     Min CFL|     Max CFL|      rms[P]|  Cauchy[CD]|          CD|
+-----------------------------------------------------------------------------+
|        8410|  4.6686e+01|  4.6686e+01|  -10.186552|  1.3346e-06|    0.032682|
|        8420|  4.6686e+01|  4.6686e+01|  -10.189311|  1.3259e-06|    0.032681|
|        8430|  4.6686e+01|  4.6686e+01|  -10.192060|  1.3174e-06|    0.032680|
|        8440|  4.6686e+01|  4.6686e+01|  -10.194812|  1.3088e-06|    0.032678|
|        8450|  4.6686e+01|  4.6686e+01|  -10.197567|  1.3003e-06|    0.032677|
|        8460|  4.6686e+01|  4.6686e+01|  -10.200329|  1.2919e-06|    0.032676|
|        8470|  4.6686e+01|  4.6686e+01|  -10.203092|  1.2835e-06|    0.032675|
|        8480|  4.6686e+01|  4.6686e+01|  -10.205853|  1.2752e-06|    0.032674|
|        8490|  4.6686e+01|  4.6686e+01|  -10.208608|  1.2669e-06|    0.032673|
|        8500|  4.6686e+01|  4.6686e+01|  -10.211359|  1.2587e-06|    0.032671|
|        8510|  4.6686e+01|  4.6686e+01|  -10.214109|  1.2505e-06|    0.032670|
|        8520|  4.6686e+01|  4.6686e+01|  -10.216859|  1.2424e-06|    0.032669|
|        8530|  4.6686e+01|  4.6686e+01|  -10.219610|  1.2344e-06|    0.032668|
|        8540|  4.6686e+01|  4.6686e+01|  -10.222362|  1.2265e-06|    0.032667|
|        8550|  4.6686e+01|  4.6686e+01|  -10.225113|  1.2186e-06|    0.032666|
|        8560|  4.6686e+01|  4.6686e+01|  -10.227861|  1.2107e-06|    0.032665|
|        8570|  4.6686e+01|  4.6686e+01|  -10.230606|  1.2029e-06|    0.032663|
|        8580|  4.6686e+01|  4.6686e+01|  -10.233346|  1.1952e-06|    0.032662|
|        8590|  4.6686e+01|  4.6686e+01|  -10.236085|  1.1875e-06|    0.032661|
|        8600|  4.6686e+01|  4.6686e+01|  -10.238825|  1.1799e-06|    0.032660|
+-----------------------------------------------------------------------+
|        File Writing Summary       |              Filename             |
+-----------------------------------------------------------------------+
|SU2 binary restart                 |restart_flow_G6.dat                |
|Paraview                           |flow_G6.vtu                        |
|Paraview surface                   |surface_flow_G6.vtu                |
+-----------------------------------------------------------------------+
+-----------------------------------------------------------------------------+
|  Inner_Iter|     Min CFL|     Max CFL|      rms[P]|  Cauchy[CD]|          CD|
+-----------------------------------------------------------------------------+
|        8610|  4.6686e+01|  4.6686e+01|  -10.241567|  1.1723e-06|    0.032659|
|        8620|  4.6686e+01|  4.6686e+01|  -10.244310|  1.1648e-06|    0.032658|
|        8630|  4.6686e+01|  4.6686e+01|  -10.247051|  1.1573e-06|    0.032657|
|        8640|  4.6686e+01|  4.6686e+01|  -10.249789|  1.1499e-06|    0.032656|
|        8650|  4.6686e+01|  4.6686e+01|  -10.252528|  1.1425e-06|    0.032655|
|        8660|  4.6686e+01|  4.6686e+01|  -10.255262|  1.1352e-06|    0.032654|
|        8670|  4.6686e+01|  4.6686e+01|  -10.257997|  1.1280e-06|    0.032653|
|        8680|  4.6686e+01|  4.6686e+01|  -10.260741|  1.1208e-06|    0.032652|
|        8690|  4.6686e+01|  4.6686e+01|  -10.263481|  1.1136e-06|    0.032651|
|        8700|  4.6686e+01|  4.6686e+01|  -10.266224|  1.1065e-06|    0.032650|
|        8710|  4.6686e+01|  4.6686e+01|  -10.268969|  1.0994e-06|    0.032649|
|        8720|  4.6686e+01|  4.6686e+01|  -10.271716|  1.0924e-06|    0.032648|
|        8730|  4.6686e+01|  4.6686e+01|  -10.274465|  1.0854e-06|    0.032647|
|        8740|  4.6686e+01|  4.6686e+01|  -10.277221|  1.0785e-06|    0.032646|
|        8750|  4.6686e+01|  4.6686e+01|  -10.279973|  1.0716e-06|    0.032645|
|        8760|  4.6686e+01|  4.6686e+01|  -10.282728|  1.0648e-06|    0.032644|
|        8770|  4.6686e+01|  4.6686e+01|  -10.285486|  1.0580e-06|    0.032643|
|        8780|  4.6686e+01|  4.6686e+01|  -10.288247|  1.0512e-06|    0.032642|
|        8790|  4.6686e+01|  4.6686e+01|  -10.291011|  1.0445e-06|    0.032641|
|        8800|  4.6686e+01|  4.6686e+01|  -10.293775|  1.0378e-06|    0.032640|
+-----------------------------------------------------------------------+
|        File Writing Summary       |              Filename             |
+-----------------------------------------------------------------------+
|SU2 binary restart                 |restart_flow_G6.dat                |
|Paraview                           |flow_G6.vtu                        |
|Paraview surface                   |surface_flow_G6.vtu                |
+-----------------------------------------------------------------------+
+-----------------------------------------------------------------------------+
|  Inner_Iter|     Min CFL|     Max CFL|      rms[P]|  Cauchy[CD]|          CD|
+-----------------------------------------------------------------------------+
|        8810|  4.6686e+01|  4.6686e+01|  -10.296538|  1.0312e-06|    0.032639|
|        8820|  4.6686e+01|  4.6686e+01|  -10.299294|  1.0247e-06|    0.032638|
|        8830|  4.6686e+01|  4.6686e+01|  -10.302048|  1.0182e-06|    0.032637|
|        8840|  4.6686e+01|  4.6686e+01|  -10.304802|  1.0117e-06|    0.032636|
|        8850|  4.6686e+01|  4.6686e+01|  -10.307561|  1.0053e-06|    0.032635|
|        8859|  4.6686e+01|  4.6686e+01|  -10.310047|  9.9952e-07|    0.032634|

----------------------------- Solver Exit -------------------------------
All convergence criteria satisfied.
+-----------------------------------------------------------------------+
|      Convergence Field     |     Value    |   Criterion  |  Converged |
+-----------------------------------------------------------------------+
|                      rms[P]|        -10.31|          < -9|         Yes|
|                  Cauchy[CD]|    9.9952e-07|       < 1e-06|         Yes|
+-----------------------------------------------------------------------+
-------------------------------------------------------------------------
+-----------------------------------------------------------------------+
|        File Writing Summary       |              Filename             |
+-----------------------------------------------------------------------+
|SU2 binary restart                 |restart_flow_G6.dat                |
|Paraview                           |flow_G6.vtu                        |
|Paraview surface                   |surface_flow_G6.vtu                |
+-----------------------------------------------------------------------+

------------------------- Solver Postprocessing -------------------------
Deleted CNumerics container.
Deleted CIntegration container.
Deleted CSolver container.
Deleted CIteration container.
Deleted CInterface container.
Deleted CGeometry container.
Deleted CFreeFormDefBox class.
Deleted CSurfaceMovement class.
Deleted CVolumetricMovement class.
Deleted CConfig container.
Deleted nInst container.
Deleted COutput class.
-------------------------------------------------------------------------

------------------------- Exit Success (SU2_CFD) ------------------------

