
-------------------------------------------------------------------------
|    ___ _   _ ___                                                      |
|   / __| | | |_  )   Release 7.4.0 "Blackbird"                         |
|   \__ \ |_| |/ /                                                      |
|   |___/\___//___|   Suite (Computational Fluid Dynamics Code)         |
|                                                                       |
-------------------------------------------------------------------------
| SU2 Project Website: https://su2code.github.io                        |
|                                                                       |
| The SU2 Project is maintained by the SU2 Foundation                   |
| (http://su2foundation.org)                                            |
-------------------------------------------------------------------------
| Copyright 2012-2022, SU2 Contributors                                 |
|                                                                       |
| SU2 is free software; you can redistribute it and/or                  |
| modify it under the terms of the GNU Lesser General Public            |
| License as published by the Free Software Foundation; either          |
| version 2.1 of the License, or (at your option) any later version.    |
|                                                                       |
| SU2 is distributed in the hope that it will be useful,                |
| but WITHOUT ANY WARRANTY; without even the implied warranty of        |
| MERCHANTABILITY or FITNESS FOR A PARTICULAR PURPOSE. See the GNU      |
| Lesser General Public License for more details.                       |
|                                                                       |
| You should have received a copy of the GNU Lesser General Public      |
| License along with SU2. If not, see <http://www.gnu.org/licenses/>.   |
-------------------------------------------------------------------------

Parsing config file for zone 0

----------------- Physical Case Definition ( Zone 0 ) -------------------
Incompressible RANS equations.
Turbulence model: Spalart-Allmaras-noft2
Hybrid RANS/LES: No Hybrid RANS/LES
Reading and writing binary SU2 native restart files.
Read flow solution from: ../../../O1/caseG9/cfdG9/restart_flow_G9.dat.
Non-Dimensional simulation using intialization values.
The reference area is 1 m^2.
The semi-span will be computed using the max y(3D) value.
The reference length is 1.00898 m.
Reference origin for moment evaluation is (-0.756, 0, 0).
Surface(s) where the force coefficients are evaluated: AIRFOIL.

Surface(s) plotted in the output file: AIRFOIL.
Input mesh file name: ../meshG9/meshG9.su2

--------------- Space Numerical Integration ( Zone 0 ) ------------------
Flux difference splitting (FDS) upwind scheme for the flow inviscid terms.
Second order integration in space, with slope limiter.
Venkatakrishnan slope-limiting method, with constant: 0.034.
The reference element size is: 1. 
Average of gradients with correction (viscous flow terms).
Average of gradients with correction (viscous turbulence terms).
Gradient for upwind reconstruction: unweighted Least-Squares.
Gradient for viscous and source terms: Green-Gauss.

--------------- Time Numerical Integration  ( Zone 0 ) ------------------
Local time stepping (steady state simulation).
Euler implicit method for the flow equations.
FGMRES is used for solving the linear system.
Using a ILU(0) preconditioning.
Convergence criteria of the linear solver: 1e-06.
Max number of linear iterations: 10.
CFL adaptation. Factor down: 0.1, factor up: 1.2,
                lower limit: 1, upper limit: 1000,
                acceptable linear residual: 0.001.
Courant-Friedrichs-Lewy number:        2
Euler implicit time integration for the turbulence model.

------------------ Convergence Criteria  ( Zone 0 ) ---------------------
Maximum number of solver subiterations: 20000.
Begin convergence monitoring at iteration 10.
Residual minimum value: 1e-9.
Cauchy series min. value: 1e-06.
Number of Cauchy elements: 250.
Begin windowed time average at iteration 0.

-------------------- Output Information ( Zone 0 ) ----------------------
File writing frequency: 
+------------------------------------+
|                     File| Frequency|
+------------------------------------+
|                  RESTART|       200|
|                 PARAVIEW|       200|
|         SURFACE_PARAVIEW|       200|
+------------------------------------+
Writing the convergence history file every 1 inner iterations.
Writing the screen convergence history every 10 inner iterations.
The tabular file format is CSV (.csv).
Convergence history file name: history_G9.
Forces breakdown file name: forces_breakdown.dat.
Surface file name: surface_flow_G9.
Volume file name: flow_G9.
Restart file name: restart_flow_G9.dat.

------------- Config File Boundary Information ( Zone 0 ) ---------------
+-----------------------------------------------------------------------+
|                        Marker Type|                        Marker Name|
+-----------------------------------------------------------------------+
|                          Far-field|                           FARFIELD|
+-----------------------------------------------------------------------+
|                     Heat flux wall|                            AIRFOIL|
+-----------------------------------------------------------------------+

-------------------- Output Preprocessing ( Zone 0 ) --------------------

WARNING: SURFACE_PRESSURE_DROP can only be computed for at least 2 surfaces (outlet, inlet, ...)

Screen output fields: INNER_ITER, MIN_CFL, MAX_CFL, RMS_PRESSURE, CAUCHY_DRAG, DRAG
History output group(s): INNER_ITER, MIN_CFL, MAX_CFL, RMS_RES, LIFT, DRAG, MOMENT_Z, CAUCHY
Convergence field(s): RMS_PRESSURE, DRAG
Warning: No (valid) fields chosen for time convergence monitoring. Time convergence monitoring inactive.
Volume output fields: COORDINATES, SOLUTION, PRIMITIVE, RESIDUAL, MESH_QUALITY

------------------- Geometry Preprocessing ( Zone 0 ) -------------------
Two dimensional problem.
784445 grid points before partitioning.
782484 volume elements before partitioning.
2 surface markers.
1148 boundary elements in index 0 (Marker = AIRFOIL).
2774 boundary elements in index 1 (Marker = FARFIELD).
Executing the partitioning functions.
Building the graph adjacency structure.
Calling ParMETIS... graph partitioning complete (6217 edge cuts).
Distributing ParMETIS coloring.
Rebalancing vertices.
Rebalancing volume element connectivity.
Rebalancing markers and surface elements.
796899 vertices including ghost points. 
788699 interior elements including halo cells. 
788699 quadrilaterals.
Establishing MPI communication patterns.
Setting point connectivity.
Renumbering points (Reverse Cuthill McKee Ordering).
Recomputing point connectivity.
Setting element connectivity.
Checking the numerical grid orientation.
All volume elements are correctly orientend.
There has been a re-orientation of 1969 LINE surface elements.
Identifying edges and vertices.
Setting the control volume structure.
Area of the computational grid: 3234.14.
Searching for the closest normal neighbors to the surfaces.
Storing a mapping from global to local point index.
Compute the surface curvature.
Max K: 29375.9. Mean K: 80.9815. Standard deviation K: 951.284.
Checking for periodicity.
Computing mesh quality statistics for the dual control volumes.
+--------------------------------------------------------------+
|           Mesh Quality Metric|        Minimum|        Maximum|
+--------------------------------------------------------------+
|    Orthogonality Angle (deg.)|        76.3381|             90|
|     CV Face Area Aspect Ratio|        1.00005|         428730|
|           CV Sub-Volume Ratio|              1|        80.0003|
+--------------------------------------------------------------+
Finding max control volume width.
Communicating number of neighbors.
Wetted area = 2.05984 m.
Area projection in the x-plane = 0.121117 m, y-plane = 1.00888 m.
Max. coordinate in the x-direction = 1.00898 m, y-direction = 0.0759842 m.
Min. coordinate in the x-direction = 2.52722e-07 m, y-direction = -0.0451351 m.
Computing wall distances.

-------------------- Solver Preprocessing ( Zone 0 ) --------------------
 Warning: There is no restart file (flow.meta).
 Computation will continue without updating metadata parameters.
Incompressible flow: rho_ref, vel_ref, and temp_ref
are based on the initial values, p_ref = rho_ref*vel_ref^2.
Force coefficients computed using initial values.
The reference area for force coeffs. is 1 m^2.
The reference length for force coeffs. is 1.00898 m.
The pressure is decomposed into thermodynamic and dynamic components.
The initial value of the dynamic pressure is 0.
Mach number: 0.0276747, computed using the Bulk modulus.
For external flows, the initial state is imposed at the far-field.
Angle of attack (deg): 14, computed using the initial velocity.
Side slip angle (deg): 0, computed using the initial velocity.
Reynolds number per meter: 594999, computed using initial values.
Reynolds number is a byproduct of inputs only (not used internally).
SI units only. The grid should be dimensional (meters).
No energy equation.

-- Models:
+------------------------------------------------------------------------------+
|          Viscosity Model|        Conductivity Model|              Fluid Model|
+------------------------------------------------------------------------------+
|       CONSTANT_VISCOSITY|          CONSTANT_PRANDTL|         CONSTANT_DENSITY|
+------------------------------------------------------------------------------+
-- Fluid properties:
+------------------------------------------------------------------------------+
|                  Name|    Dim. value|    Ref. value|      Unit|Non-dim. value|
+------------------------------------------------------------------------------+
|             Viscosity|      1.92e-05|        11.424|   N.s/m^2|   1.68067e-06|
+------------------------------------------------------------------------------+
|        Prandtl (Lam.)|             -|             -|         -|          0.72|
|       Prandtl (Turb.)|             -|             -|         -|           0.9|
+------------------------------------------------------------------------------+
|          Bulk Modulus|        142000|             1|        Pa|        142000|
+------------------------------------------------------------------------------+
-- Initial and free-stream conditions:
+------------------------------------------------------------------------------+
|                  Name|    Dim. value|    Ref. value|      Unit|Non-dim. value|
+------------------------------------------------------------------------------+
|      Dynamic Pressure|             0|       108.756|        Pa|             0|
|        Total Pressure|       54.3781|       108.756|        Pa|           0.5|
|               Density|           1.2|           1.2|    kg/m^3|             1|
|            Velocity-X|        9.2372|       9.51999|       m/s|      0.970296|
|            Velocity-Y|        2.3031|       9.51999|       m/s|      0.241923|
|    Velocity Magnitude|       9.51999|       9.51999|       m/s|             1|
+------------------------------------------------------------------------------+
|             Viscosity|      1.92e-05|        11.424|   N.s/m^2|   1.68067e-06|
|          Conductivity|             -|       3.59312|   W/m^2.K|             -|
|     Turb. Kin. Energy|       1.35945|       90.6301|   m^2/s^2|         0.015|
|     Spec. Dissipation|       8496.58|       9.51999|       1/s|       892.499|
+------------------------------------------------------------------------------+
|           Mach Number|             -|             -|         -|     0.0276747|
|       Reynolds Number|             -|             -|         -|        594999|
+------------------------------------------------------------------------------+
Initialize Jacobian structure (Navier-Stokes). MG level: 0.
Initialize Jacobian structure (SA model).

------------------- Numerics Preprocessing ( Zone 0 ) -------------------

----------------- Integration Preprocessing ( Zone 0 ) ------------------

------------------- Iteration Preprocessing ( Zone 0 ) ------------------
Euler/Navier-Stokes/RANS fluid iteration.

------------------------------ Begin Solver -----------------------------

Simulation Run using the Single-zone Driver
+-----------------------------------------------------------------------------+
|  Inner_Iter|     Min CFL|     Max CFL|      rms[P]|  Cauchy[CD]|          CD|
+-----------------------------------------------------------------------------+
|           0|  2.4000e+00|  2.4000e+00|   -6.798508|  1.0000e+00|    0.083416|
|          10|  1.4860e+01|  1.4860e+01|   -6.809610|  6.6863e-05|    0.081745|
|          20|  7.6675e+00|  7.6675e+00|   -7.204572|  5.0841e-04|    0.070706|
|          30|  4.7475e+01|  4.7475e+01|   -7.247794|  8.7435e-04|    0.061557|
|          40|  4.7475e+01|  4.7475e+01|   -7.300935|  1.2224e-03|    0.052856|
|          50|  9.8445e+00|  9.8445e+00|   -7.322252|  1.2546e-03|    0.053340|
|          60|  5.0795e+01|  5.0795e+01|   -7.351257|  1.2935e-03|    0.054313|
|          70|  2.1841e+01|  2.1841e+01|   -7.373309|  1.3259e-03|    0.055122|
|          80|  5.4348e+01|  5.4348e+01|   -7.381842|  1.3683e-03|    0.056182|
|          90|  9.3913e+00|  9.3913e+00|   -7.402750|  1.3849e-03|    0.056207|
|         100|  5.8148e+01|  5.8148e+01|   -7.448882|  1.4103e-03|    0.055570|
|         110|  3.0003e+01|  3.0003e+01|   -7.493896|  1.4461e-03|    0.054676|
|         120|  6.2215e+01|  6.2215e+01|   -7.474681|  1.5072e-03|    0.053148|
|         130|  3.2101e+01|  3.2101e+01|   -7.577925|  1.5176e-03|    0.052889|
|         140|  1.6564e+01|  1.6564e+01|   -7.585515|  1.5195e-03|    0.052878|
|         150|  5.9350e+01|  5.9350e+01|   -7.550068|  1.5278e-03|    0.053085|
|         160|  5.9350e+01|  5.9350e+01|   -7.624955|  1.5378e-03|    0.053332|
|         170|  1.0256e+01|  1.0256e+01|   -7.694669|  1.5476e-03|    0.053088|
|         180|  5.2917e+01|  5.2917e+01|   -7.718869|  1.5583e-03|    0.052820|
|         190|  1.3168e+01|  1.3168e+01|   -7.720558|  1.5686e-03|    0.052562|
|         200|  6.7942e+00|  6.7942e+00|   -7.717297|  1.5727e-03|    0.052460|
+-----------------------------------------------------------------------+
|        File Writing Summary       |              Filename             |
+-----------------------------------------------------------------------+
|SU2 binary restart                 |restart_flow_G9.dat                |
|Paraview                           |flow_G9.vtu                        |
|Paraview surface                   |surface_flow_G9.vtu                |
+-----------------------------------------------------------------------+
+-----------------------------------------------------------------------------+
|  Inner_Iter|     Min CFL|     Max CFL|      rms[P]|  Cauchy[CD]|          CD|
+-----------------------------------------------------------------------------+
|         210|  4.2068e+01|  4.2068e+01|   -7.729711|  1.5733e-03|    0.052465|
|         220|  1.0468e+01|  1.0468e+01|   -7.770783|  1.5778e-03|    0.052576|
|         230|  5.4011e+00|  5.4011e+00|   -7.782456|  1.5825e-03|    0.052695|
|         240|  3.3442e+01|  3.3442e+01|   -7.777671|  1.5849e-03|    0.052755|
|         250|  4.8157e+01|  4.8157e+01|   -7.746409|  1.5938e-03|    0.052978|
|         260|  4.8157e+01|  4.8157e+01|   -7.746826|  1.5390e-03|    0.053280|
|         270|  4.8157e+01|  4.8157e+01|   -7.783081|  1.1032e-03|    0.053397|
|         280|  4.8157e+01|  4.8157e+01|   -7.836230|  7.5458e-04|    0.052965|
|         290|  1.7256e+01|  1.7256e+01|   -7.836786|  4.2055e-04|    0.052615|
|         300|  8.9035e+00|  8.9035e+00|   -7.831187|  4.0752e-04|    0.052136|
|         310|  4.5940e+01|  4.5940e+01|   -7.834603|  3.8727e-04|    0.051669|
|         320|  4.5940e+01|  4.5940e+01|   -7.889812|  3.8481e-04|    0.050922|
|         330|  4.5940e+01|  4.5940e+01|   -7.930362|  3.5712e-04|    0.050553|
|         340|  4.5940e+01|  4.5940e+01|   -7.897590|  3.4360e-04|    0.050546|
|         350|  2.3704e+01|  2.3704e+01|   -7.885725|  3.2115e-04|    0.050621|
|         360|  1.2231e+01|  1.2231e+01|   -7.888829|  2.9038e-04|    0.050746|
|         370|  6.3108e+00|  6.3108e+00|   -7.914738|  2.3749e-04|    0.050951|
|         380|  3.9075e+01|  3.9075e+01|   -7.932894|  2.3334e-04|    0.051107|
|         390|  2.0162e+01|  2.0162e+01|   -7.962970|  2.4082e-04|    0.051343|
|         400|  1.0403e+01|  1.0403e+01|   -7.971300|  2.4392e-04|    0.051627|
+-----------------------------------------------------------------------+
|        File Writing Summary       |              Filename             |
+-----------------------------------------------------------------------+
|SU2 binary restart                 |restart_flow_G9.dat                |
|Paraview                           |flow_G9.vtu                        |
|Paraview surface                   |surface_flow_G9.vtu                |
+-----------------------------------------------------------------------+
+-----------------------------------------------------------------------------+
|  Inner_Iter|     Min CFL|     Max CFL|      rms[P]|  Cauchy[CD]|          CD|
+-----------------------------------------------------------------------------+
|         410|  5.3677e+00|  5.3677e+00|   -7.961907|  2.4861e-04|    0.051995|
|         420|  3.3236e+01|  3.3236e+01|   -7.952690|  2.4642e-04|    0.052184|
|         430|  4.7859e+01|  4.7859e+01|   -7.958316|  2.5447e-04|    0.052653|
|         440|  4.7859e+01|  4.7859e+01|   -7.995380|  2.5032e-04|    0.052643|
|         450|  1.4291e+01|  1.4291e+01|   -8.016168|  2.5755e-04|    0.052360|
|         460|  7.3737e+00|  7.3737e+00|   -8.024792|  2.7054e-04|    0.052020|
|         470|  4.5656e+01|  4.5656e+01|   -8.040142|  2.7736e-04|    0.051738|
|         480|  2.3557e+01|  2.3557e+01|   -8.062238|  2.8311e-04|    0.051475|
|         490|  4.8849e+01|  4.8849e+01|   -8.078479|  2.9785e-04|    0.051047|
|         500|  4.8849e+01|  4.8849e+01|   -8.045265|  2.9986e-04|    0.050774|
|         510|  4.8849e+01|  4.8849e+01|   -8.039019|  2.9743e-04|    0.050533|
|         520|  7.0342e+00|  7.0342e+00|   -8.092767|  3.0167e-04|    0.050283|
|         530|  4.3554e+01|  4.3554e+01|   -8.121442|  2.8905e-04|    0.050167|
|         540|  2.2473e+01|  2.2473e+01|   -8.152724|  2.7924e-04|    0.050062|
|         550|  4.6600e+01|  4.6600e+01|   -8.167752|  2.6639e-04|    0.049904|
|         560|  1.6698e+01|  1.6698e+01|   -8.166463|  2.4923e-04|    0.049866|
|         570|  8.6156e+00|  8.6156e+00|   -8.158983|  2.1976e-04|    0.049869|
|         580|  5.3345e+01|  5.3345e+01|   -8.169081|  2.0640e-04|    0.049903|
|         590|  2.7525e+01|  2.7525e+01|   -8.182462|  2.0488e-04|    0.049942|
|         600|  1.4202e+01|  1.4202e+01|   -8.200117|  2.0457e-04|    0.050010|
+-----------------------------------------------------------------------+
|        File Writing Summary       |              Filename             |
+-----------------------------------------------------------------------+
|SU2 binary restart                 |restart_flow_G9.dat                |
|Paraview                           |flow_G9.vtu                        |
|Paraview surface                   |surface_flow_G9.vtu                |
+-----------------------------------------------------------------------+
+-----------------------------------------------------------------------------+
|  Inner_Iter|     Min CFL|     Max CFL|      rms[P]|  Cauchy[CD]|          CD|
+-----------------------------------------------------------------------------+
|         610|  5.0890e+01|  5.0890e+01|   -8.209604|  2.0270e-04|    0.050088|
|         620|  7.3281e+00|  7.3281e+00|   -8.235540|  1.9590e-04|    0.050096|
|         630|  4.5374e+01|  4.5374e+01|   -8.255194|  1.9158e-04|    0.050048|
|         640|  2.3412e+01|  2.3412e+01|   -8.276428|  1.8553e-04|    0.049963|
|         650|  4.8547e+01|  4.8547e+01|   -8.297798|  1.8643e-04|    0.049656|
|         660|  1.2080e+01|  1.2080e+01|   -8.309558|  1.8416e-04|    0.049346|
|         670|  6.2330e+00|  6.2330e+00|   -8.304207|  1.8607e-04|    0.049109|
|         680|  3.8593e+01|  3.8593e+01|   -8.304683|  1.7264e-04|    0.048975|
|         690|  1.9913e+01|  1.9913e+01|   -8.298242|  1.7229e-04|    0.048830|
|         700|  4.9550e+01|  4.9550e+01|   -8.294689|  1.6776e-04|    0.048660|
|         710|  1.7755e+01|  1.7755e+01|   -8.328611|  1.5618e-04|    0.048609|
|         720|  9.1611e+00|  9.1611e+00|   -8.350075|  1.4570e-04|    0.048590|
|         730|  5.6723e+01|  5.6723e+01|   -8.380950|  1.3542e-04|    0.048584|
|         740|  2.9268e+01|  2.9268e+01|   -8.389287|  1.1843e-04|    0.048581|
|         750|  5.0575e+01|  5.0575e+01|   -8.354006|  1.0917e-04|    0.048539|
|         760|  5.0575e+01|  5.0575e+01|   -8.351886|  1.0497e-04|    0.048403|
|         770|  5.0575e+01|  5.0575e+01|   -8.387951|  1.0417e-04|    0.048173|
|         780|  5.0575e+01|  5.0575e+01|   -8.412613|  1.1067e-04|    0.047894|
|         790|  5.0575e+01|  5.0575e+01|   -8.433788|  1.1778e-04|    0.047612|
|         800|  5.0575e+01|  5.0575e+01|   -8.457850|  1.2223e-04|    0.047342|
+-----------------------------------------------------------------------+
|        File Writing Summary       |              Filename             |
+-----------------------------------------------------------------------+
|SU2 binary restart                 |restart_flow_G9.dat                |
|Paraview                           |flow_G9.vtu                        |
|Paraview surface                   |surface_flow_G9.vtu                |
+-----------------------------------------------------------------------+
+-----------------------------------------------------------------------------+
|  Inner_Iter|     Min CFL|     Max CFL|      rms[P]|  Cauchy[CD]|          CD|
+-----------------------------------------------------------------------------+
|         810|  5.0575e+01|  5.0575e+01|   -8.453152|  1.3071e-04|    0.047092|
|         820|  5.0575e+01|  5.0575e+01|   -8.454400|  1.3881e-04|    0.046879|
|         830|  5.0575e+01|  5.0575e+01|   -8.482649|  1.4377e-04|    0.046721|
|         840|  5.0575e+01|  5.0575e+01|   -8.491181|  1.4684e-04|    0.046606|
|         850|  5.0575e+01|  5.0575e+01|   -8.467087|  1.4853e-04|    0.046496|
|         860|  5.0575e+01|  5.0575e+01|   -8.427949|  1.5083e-04|    0.046360|
|         870|  5.0575e+01|  5.0575e+01|   -8.388256|  1.5621e-04|    0.046191|
|         880|  5.0575e+01|  5.0575e+01|   -8.352808|  1.6207e-04|    0.045997|
|         890|  5.0575e+01|  5.0575e+01|   -8.341464|  1.6709e-04|    0.045786|
|         900|  5.0575e+01|  5.0575e+01|   -8.381332|  1.6381e-04|    0.045561|
|         910|  5.0575e+01|  5.0575e+01|   -8.467283|  1.6061e-04|    0.045331|
|         920|  5.0575e+01|  5.0575e+01|   -8.544847|  1.5993e-04|    0.045111|
|         930|  5.0575e+01|  5.0575e+01|   -8.579085|  1.6228e-04|    0.044918|
|         940|  5.0575e+01|  5.0575e+01|   -8.597971|  1.6285e-04|    0.044759|
|         950|  5.0575e+01|  5.0575e+01|   -8.621340|  1.6144e-04|    0.044624|
|         960|  5.0575e+01|  5.0575e+01|   -8.664086|  1.6454e-04|    0.044496|
|         970|  5.0575e+01|  5.0575e+01|   -8.703210|  1.6932e-04|    0.044357|
|         980|  5.0575e+01|  5.0575e+01|   -8.693245|  1.7530e-04|    0.044202|
|         990|  5.0575e+01|  5.0575e+01|   -8.672635|  1.8175e-04|    0.044037|
|        1000|  5.0575e+01|  5.0575e+01|   -8.654635|  1.8674e-04|    0.043870|
+-----------------------------------------------------------------------+
|        File Writing Summary       |              Filename             |
+-----------------------------------------------------------------------+
|SU2 binary restart                 |restart_flow_G9.dat                |
|Paraview                           |flow_G9.vtu                        |
|Paraview surface                   |surface_flow_G9.vtu                |
+-----------------------------------------------------------------------+
+-----------------------------------------------------------------------------+
|  Inner_Iter|     Min CFL|     Max CFL|      rms[P]|  Cauchy[CD]|          CD|
+-----------------------------------------------------------------------------+
|        1010|  5.0575e+01|  5.0575e+01|   -8.590964|  1.8790e-04|    0.043706|
|        1020|  5.0575e+01|  5.0575e+01|   -8.518221|  1.8525e-04|    0.043542|
|        1030|  5.0575e+01|  5.0575e+01|   -8.495992|  1.8051e-04|    0.043381|
|        1040|  5.0575e+01|  5.0575e+01|   -8.529591|  1.7538e-04|    0.043227|
|        1050|  5.0575e+01|  5.0575e+01|   -8.589881|  1.7036e-04|    0.043083|
|        1060|  5.0575e+01|  5.0575e+01|   -8.642028|  1.6559e-04|    0.042952|
|        1070|  1.2585e+01|  1.2585e+01|   -8.698365|  1.5989e-04|    0.042882|
|        1080|  6.4934e+00|  6.4934e+00|   -8.680942|  1.5605e-04|    0.042820|
|        1090|  4.0205e+01|  4.0205e+01|   -8.707753|  1.5296e-04|    0.042782|
|        1100|  4.8246e+01|  4.8246e+01|   -8.695284|  1.5290e-04|    0.042673|
|        1110|  4.8246e+01|  4.8246e+01|   -8.693980|  1.5189e-04|    0.042563|
|        1120|  4.8246e+01|  4.8246e+01|   -8.682922|  1.4964e-04|    0.042450|
|        1130|  4.8246e+01|  4.8246e+01|   -8.659982|  1.4640e-04|    0.042337|
|        1140|  4.8246e+01|  4.8246e+01|   -8.639666|  1.4233e-04|    0.042228|
|        1150|  4.8246e+01|  4.8246e+01|   -8.635312|  1.3741e-04|    0.042126|
|        1160|  4.8246e+01|  4.8246e+01|   -8.645218|  1.3187e-04|    0.042034|
|        1170|  4.8246e+01|  4.8246e+01|   -8.659585|  1.2634e-04|    0.041952|
|        1180|  4.8246e+01|  4.8246e+01|   -8.670845|  1.2150e-04|    0.041881|
|        1190|  4.8246e+01|  4.8246e+01|   -8.676460|  1.1763e-04|    0.041818|
|        1200|  4.8246e+01|  4.8246e+01|   -8.675711|  1.1451e-04|    0.041762|
+-----------------------------------------------------------------------+
|        File Writing Summary       |              Filename             |
+-----------------------------------------------------------------------+
|SU2 binary restart                 |restart_flow_G9.dat                |
|Paraview                           |flow_G9.vtu                        |
|Paraview surface                   |surface_flow_G9.vtu                |
+-----------------------------------------------------------------------+
+-----------------------------------------------------------------------------+
|  Inner_Iter|     Min CFL|     Max CFL|      rms[P]|  Cauchy[CD]|          CD|
+-----------------------------------------------------------------------------+
|        1210|  4.8246e+01|  4.8246e+01|   -8.667112|  1.1155e-04|    0.041707|
|        1220|  4.8246e+01|  4.8246e+01|   -8.650472|  1.0822e-04|    0.041651|
|        1230|  4.8246e+01|  4.8246e+01|   -8.632476|  1.0438e-04|    0.041592|
|        1240|  4.8246e+01|  4.8246e+01|   -8.623575|  1.0022e-04|    0.041531|
|        1250|  4.8246e+01|  4.8246e+01|   -8.628495|  9.5923e-05|    0.041472|
|        1260|  4.8246e+01|  4.8246e+01|   -8.642405|  9.1418e-05|    0.041420|
|        1270|  4.8246e+01|  4.8246e+01|   -8.655538|  8.6550e-05|    0.041378|
|        1280|  4.8246e+01|  4.8246e+01|   -8.662962|  8.1303e-05|    0.041349|
|        1290|  4.8246e+01|  4.8246e+01|   -8.668447|  7.5868e-05|    0.041330|
|        1300|  4.8246e+01|  4.8246e+01|   -8.676531|  7.0536e-05|    0.041320|
|        1310|  4.8246e+01|  4.8246e+01|   -8.683736|  6.5561e-05|    0.041313|
|        1320|  4.8246e+01|  4.8246e+01|   -8.681187|  6.3080e-05|    0.041305|
|        1330|  1.2005e+01|  1.2005e+01|   -8.671381|  6.0910e-05|    0.041297|
|        1340|  6.1945e+00|  6.1945e+00|   -8.662757|  5.9668e-05|    0.041290|
|        1350|  3.8354e+01|  3.8354e+01|   -8.662432|  5.5563e-05|    0.041284|
|        1360|  1.9790e+01|  1.9790e+01|   -8.655856|  5.1473e-05|    0.041276|
|        1370|  4.9244e+01|  4.9244e+01|   -8.642751|  4.7590e-05|    0.041260|
|        1380|  4.9244e+01|  4.9244e+01|   -8.636703|  4.3771e-05|    0.041242|
|        1390|  4.9244e+01|  4.9244e+01|   -8.634817|  3.9915e-05|    0.041230|
|        1400|  4.9244e+01|  4.9244e+01|   -8.634084|  3.6091e-05|    0.041224|
+-----------------------------------------------------------------------+
|        File Writing Summary       |              Filename             |
+-----------------------------------------------------------------------+
|SU2 binary restart                 |restart_flow_G9.dat                |
|Paraview                           |flow_G9.vtu                        |
|Paraview surface                   |surface_flow_G9.vtu                |
+-----------------------------------------------------------------------+
+-----------------------------------------------------------------------------+
|  Inner_Iter|     Min CFL|     Max CFL|      rms[P]|  Cauchy[CD]|          CD|
+-----------------------------------------------------------------------------+
|        1410|  4.9244e+01|  4.9244e+01|   -8.634457|  3.2485e-05|    0.041225|
|        1420|  4.9244e+01|  4.9244e+01|   -8.635113|  2.9459e-05|    0.041231|
|        1430|  4.9244e+01|  4.9244e+01|   -8.632798|  2.6890e-05|    0.041238|
|        1440|  4.9244e+01|  4.9244e+01|   -8.625026|  2.4606e-05|    0.041244|
|        1450|  4.9244e+01|  4.9244e+01|   -8.613928|  2.2429e-05|    0.041246|
|        1460|  4.9244e+01|  4.9244e+01|   -8.604299|  2.0299e-05|    0.041245|
|        1470|  4.9244e+01|  4.9244e+01|   -8.600039|  1.8196e-05|    0.041241|
|        1480|  4.9244e+01|  4.9244e+01|   -8.602516|  1.5977e-05|    0.041238|
|        1490|  4.9244e+01|  4.9244e+01|   -8.610721|  1.3618e-05|    0.041236|
|        1500|  4.9244e+01|  4.9244e+01|   -8.622617|  1.1308e-05|    0.041237|
|        1510|  4.9244e+01|  4.9244e+01|   -8.636201|  9.3862e-06|    0.041241|
|        1520|  4.9244e+01|  4.9244e+01|   -8.649912|  7.9746e-06|    0.041247|
|        1530|  4.9244e+01|  4.9244e+01|   -8.662881|  7.0719e-06|    0.041255|
|        1540|  4.9244e+01|  4.9244e+01|   -8.675258|  6.5652e-06|    0.041260|
|        1550|  4.9244e+01|  4.9244e+01|   -8.688164|  6.2670e-06|    0.041263|
|        1560|  4.9244e+01|  4.9244e+01|   -8.703244|  6.0348e-06|    0.041262|
|        1570|  4.9244e+01|  4.9244e+01|   -8.721716|  5.8541e-06|    0.041259|
|        1580|  4.9244e+01|  4.9244e+01|   -8.743536|  5.7400e-06|    0.041254|
|        1590|  4.9244e+01|  4.9244e+01|   -8.767215|  5.6398e-06|    0.041249|
|        1600|  4.9244e+01|  4.9244e+01|   -8.790488|  5.5381e-06|    0.041246|
+-----------------------------------------------------------------------+
|        File Writing Summary       |              Filename             |
+-----------------------------------------------------------------------+
|SU2 binary restart                 |restart_flow_G9.dat                |
|Paraview                           |flow_G9.vtu                        |
|Paraview surface                   |surface_flow_G9.vtu                |
+-----------------------------------------------------------------------+
+-----------------------------------------------------------------------------+
|  Inner_Iter|     Min CFL|     Max CFL|      rms[P]|  Cauchy[CD]|          CD|
+-----------------------------------------------------------------------------+
|        1610|  4.9244e+01|  4.9244e+01|   -8.811430|  5.2311e-06|    0.041246|
|        1620|  4.9244e+01|  4.9244e+01|   -8.829472|  4.6566e-06|    0.041247|
|        1630|  4.9244e+01|  4.9244e+01|   -8.845263|  4.0529e-06|    0.041250|
|        1640|  4.9244e+01|  4.9244e+01|   -8.859804|  3.6330e-06|    0.041252|
|        1650|  4.9244e+01|  4.9244e+01|   -8.873933|  3.4222e-06|    0.041253|
|        1660|  4.9244e+01|  4.9244e+01|   -8.888246|  3.4035e-06|    0.041251|
|        1670|  4.9244e+01|  4.9244e+01|   -8.902909|  3.2818e-06|    0.041248|
|        1680|  4.9244e+01|  4.9244e+01|   -8.917590|  3.1467e-06|    0.041244|
|        1690|  4.9244e+01|  4.9244e+01|   -8.931549|  3.0832e-06|    0.041241|
|        1700|  4.9244e+01|  4.9244e+01|   -8.944006|  3.1276e-06|    0.041237|
|        1710|  4.9244e+01|  4.9244e+01|   -8.954394|  3.1707e-06|    0.041235|
|        1720|  4.9244e+01|  4.9244e+01|   -8.962183|  3.0872e-06|    0.041234|
|        1730|  4.9244e+01|  4.9244e+01|   -8.966306|  2.9679e-06|    0.041233|
|        1740|  4.9244e+01|  4.9244e+01|   -8.964240|  2.9108e-06|    0.041233|
|        1750|  4.9244e+01|  4.9244e+01|   -8.949599|  2.8982e-06|    0.041232|
|        1760|  4.9244e+01|  4.9244e+01|   -8.907920|  2.7883e-06|    0.041230|
|        1770|  4.9244e+01|  4.9244e+01|   -8.818292|  2.6028e-06|    0.041228|
|        1780|  4.9244e+01|  4.9244e+01|   -8.672350|  2.3897e-06|    0.041227|
|        1790|  8.5094e+00|  8.5094e+00|   -8.718498|  2.2029e-06|    0.041226|
|        1800|  5.2688e+01|  5.2688e+01|   -9.028055|  2.1043e-06|    0.041225|
+-----------------------------------------------------------------------+
|        File Writing Summary       |              Filename             |
+-----------------------------------------------------------------------+
|SU2 binary restart                 |restart_flow_G9.dat                |
|Paraview                           |flow_G9.vtu                        |
|Paraview surface                   |surface_flow_G9.vtu                |
+-----------------------------------------------------------------------+
+-----------------------------------------------------------------------------+
|  Inner_Iter|     Min CFL|     Max CFL|      rms[P]|  Cauchy[CD]|          CD|
+-----------------------------------------------------------------------------+
|        1810|  2.7186e+01|  2.7186e+01|   -9.034974|  2.0692e-06|    0.041225|
|        1820|  1.4027e+01|  1.4027e+01|   -9.037948|  1.9285e-06|    0.041225|
|        1830|  5.0262e+01|  5.0262e+01|   -9.044999|  1.7463e-06|    0.041226|
|        1840|  5.0262e+01|  5.0262e+01|   -9.055134|  1.6358e-06|    0.041228|
|        1850|  5.0262e+01|  5.0262e+01|   -9.063911|  1.6140e-06|    0.041230|
|        1860|  5.0262e+01|  5.0262e+01|   -9.069986|  1.6662e-06|    0.041232|
|        1870|  5.0262e+01|  5.0262e+01|   -9.073631|  1.6598e-06|    0.041234|
|        1880|  5.0262e+01|  5.0262e+01|   -9.076168|  1.6084e-06|    0.041235|
|        1890|  5.0262e+01|  5.0262e+01|   -9.078308|  1.5712e-06|    0.041236|
|        1900|  5.0262e+01|  5.0262e+01|   -9.078373|  1.5966e-06|    0.041237|
|        1910|  5.0262e+01|  5.0262e+01|   -9.075476|  1.6083e-06|    0.041239|
|        1920|  5.0262e+01|  5.0262e+01|   -9.069278|  1.5837e-06|    0.041242|
|        1930|  5.0262e+01|  5.0262e+01|   -9.059121|  1.5583e-06|    0.041245|
|        1940|  5.0262e+01|  5.0262e+01|   -9.045354|  1.5582e-06|    0.041249|
|        1950|  5.0262e+01|  5.0262e+01|   -9.029185|  1.5928e-06|    0.041253|
|        1960|  5.0262e+01|  5.0262e+01|   -9.011693|  1.6575e-06|    0.041257|
|        1970|  5.0262e+01|  5.0262e+01|   -8.993699|  1.7398e-06|    0.041260|
|        1980|  5.0262e+01|  5.0262e+01|   -8.975996|  1.8229e-06|    0.041263|
|        1990|  5.0262e+01|  5.0262e+01|   -8.959004|  1.8918e-06|    0.041265|
|        2000|  5.0262e+01|  5.0262e+01|   -8.942821|  1.9384e-06|    0.041267|
+-----------------------------------------------------------------------+
|        File Writing Summary       |              Filename             |
+-----------------------------------------------------------------------+
|SU2 binary restart                 |restart_flow_G9.dat                |
|Paraview                           |flow_G9.vtu                        |
|Paraview surface                   |surface_flow_G9.vtu                |
+-----------------------------------------------------------------------+
+-----------------------------------------------------------------------------+
|  Inner_Iter|     Min CFL|     Max CFL|      rms[P]|  Cauchy[CD]|          CD|
+-----------------------------------------------------------------------------+
|        2010|  1.8010e+01|  1.8010e+01|   -8.946392|  1.9133e-06|    0.041268|
|        2020|  9.2927e+00|  9.2927e+00|   -8.922240|  1.8716e-06|    0.041269|
|        2030|  4.7948e+01|  4.7948e+01|   -8.926830|  1.8366e-06|    0.041269|
|        2040|  4.7948e+01|  4.7948e+01|   -8.910771|  1.8864e-06|    0.041272|
|        2050|  4.7948e+01|  4.7948e+01|   -8.899157|  1.9554e-06|    0.041274|
|        2060|  4.7948e+01|  4.7948e+01|   -8.888912|  2.0092e-06|    0.041275|
|        2070|  4.7948e+01|  4.7948e+01|   -8.880231|  2.0361e-06|    0.041276|
|        2080|  4.7948e+01|  4.7948e+01|   -8.873354|  2.0206e-06|    0.041276|
|        2090|  4.7948e+01|  4.7948e+01|   -8.868054|  1.9667e-06|    0.041275|
|        2100|  4.7948e+01|  4.7948e+01|   -8.864742|  1.9323e-06|    0.041274|
|        2110|  4.7948e+01|  4.7948e+01|   -8.863198|  1.9404e-06|    0.041272|
|        2120|  4.7948e+01|  4.7948e+01|   -8.863048|  1.9888e-06|    0.041269|
|        2130|  4.7948e+01|  4.7948e+01|   -8.864549|  2.0717e-06|    0.041266|
|        2140|  4.7948e+01|  4.7948e+01|   -8.867604|  2.1865e-06|    0.041262|
|        2150|  4.7948e+01|  4.7948e+01|   -8.871649|  2.3244e-06|    0.041257|
|        2160|  4.7948e+01|  4.7948e+01|   -8.876381|  2.4741e-06|    0.041251|
|        2170|  4.7948e+01|  4.7948e+01|   -8.881545|  2.6301e-06|    0.041245|
|        2180|  4.7948e+01|  4.7948e+01|   -8.887120|  2.7960e-06|    0.041238|
|        2190|  4.7948e+01|  4.7948e+01|   -8.893194|  2.9850e-06|    0.041229|
|        2200|  4.7948e+01|  4.7948e+01|   -8.899973|  3.2154e-06|    0.041219|
+-----------------------------------------------------------------------+
|        File Writing Summary       |              Filename             |
+-----------------------------------------------------------------------+
|SU2 binary restart                 |restart_flow_G9.dat                |
|Paraview                           |flow_G9.vtu                        |
|Paraview surface                   |surface_flow_G9.vtu                |
+-----------------------------------------------------------------------+
+-----------------------------------------------------------------------------+
|  Inner_Iter|     Min CFL|     Max CFL|      rms[P]|  Cauchy[CD]|          CD|
+-----------------------------------------------------------------------------+
|        2210|  4.7948e+01|  4.7948e+01|   -8.907415|  3.5018e-06|    0.041208|
|        2220|  4.7948e+01|  4.7948e+01|   -8.915204|  3.8512e-06|    0.041196|
|        2230|  4.7948e+01|  4.7948e+01|   -8.922898|  4.2635e-06|    0.041183|
|        2240|  1.1931e+01|  1.1931e+01|   -8.929056|  4.4934e-06|    0.041175|
|        2250|  6.1561e+00|  6.1561e+00|   -8.933719|  4.7261e-06|    0.041167|
|        2260|  3.8117e+01|  3.8117e+01|   -8.940903|  4.8923e-06|    0.041162|
|        2270|  4.5741e+01|  4.5741e+01|   -8.940210|  5.4161e-06|    0.041148|
|        2280|  4.5741e+01|  4.5741e+01|   -8.944538|  5.9861e-06|    0.041133|
|        2290|  4.5741e+01|  4.5741e+01|   -8.948535|  6.5477e-06|    0.041117|
|        2300|  4.5741e+01|  4.5741e+01|   -8.951587|  7.1569e-06|    0.041100|
|        2310|  4.5741e+01|  4.5741e+01|   -8.953785|  7.8353e-06|    0.041081|
|        2320|  4.5741e+01|  4.5741e+01|   -8.955706|  8.5808e-06|    0.041062|
|        2330|  4.5741e+01|  4.5741e+01|   -8.957656|  9.3915e-06|    0.041041|
|        2340|  4.5741e+01|  4.5741e+01|   -8.959695|  1.0221e-05|    0.041020|
|        2350|  4.5741e+01|  4.5741e+01|   -8.961606|  1.1051e-05|    0.040998|
|        2360|  4.5741e+01|  4.5741e+01|   -8.963419|  1.1887e-05|    0.040975|
|        2370|  4.5741e+01|  4.5741e+01|   -8.965108|  1.2731e-05|    0.040951|
|        2380|  4.5741e+01|  4.5741e+01|   -8.966623|  1.3579e-05|    0.040926|
|        2390|  4.5741e+01|  4.5741e+01|   -8.967884|  1.4430e-05|    0.040901|
|        2400|  4.5741e+01|  4.5741e+01|   -8.968765|  1.5281e-05|    0.040875|
+-----------------------------------------------------------------------+
|        File Writing Summary       |              Filename             |
+-----------------------------------------------------------------------+
|SU2 binary restart                 |restart_flow_G9.dat                |
|Paraview                           |flow_G9.vtu                        |
|Paraview surface                   |surface_flow_G9.vtu                |
+-----------------------------------------------------------------------+
+-----------------------------------------------------------------------------+
|  Inner_Iter|     Min CFL|     Max CFL|      rms[P]|  Cauchy[CD]|          CD|
+-----------------------------------------------------------------------------+
|        2410|  4.5741e+01|  4.5741e+01|   -8.969441|  1.6128e-05|    0.040848|
|        2420|  4.5741e+01|  4.5741e+01|   -8.970200|  1.6966e-05|    0.040821|
|        2430|  4.5741e+01|  4.5741e+01|   -8.971246|  1.7791e-05|    0.040793|
|        2440|  4.5741e+01|  4.5741e+01|   -8.972826|  1.8597e-05|    0.040764|
|        2450|  4.5741e+01|  4.5741e+01|   -8.974910|  1.9376e-05|    0.040735|
|        2460|  4.5741e+01|  4.5741e+01|   -8.977481|  2.0129e-05|    0.040705|
|        2470|  4.5741e+01|  4.5741e+01|   -8.980308|  2.0858e-05|    0.040675|
|        2480|  4.5741e+01|  4.5741e+01|   -8.983230|  2.1565e-05|    0.040644|
|        2490|  4.5741e+01|  4.5741e+01|   -8.986105|  2.2489e-05|    0.040613|
|        2500|  4.5741e+01|  4.5741e+01|   -8.988836|  2.3431e-05|    0.040581|
|        2510|  4.5741e+01|  4.5741e+01|   -8.991376|  2.4500e-05|    0.040550|
|        2520|  4.5741e+01|  4.5741e+01|   -8.993699|  2.5222e-05|    0.040518|
|        2530|  4.5741e+01|  4.5741e+01|   -8.995778|  2.5905e-05|    0.040486|
|        2540|  4.5741e+01|  4.5741e+01|   -8.997596|  2.6551e-05|    0.040453|
|        2550|  4.5741e+01|  4.5741e+01|   -8.999215|  2.7167e-05|    0.040420|
|        2560|  4.5741e+01|  4.5741e+01|   -9.000702|  2.7744e-05|    0.040388|
|        2570|  4.5741e+01|  4.5741e+01|   -9.002069|  2.8285e-05|    0.040355|
|        2580|  4.5741e+01|  4.5741e+01|   -9.003252|  2.8788e-05|    0.040322|
|        2590|  4.5741e+01|  4.5741e+01|   -9.004175|  2.9254e-05|    0.040289|
|        2600|  4.5741e+01|  4.5741e+01|   -9.004753|  2.9687e-05|    0.040256|
+-----------------------------------------------------------------------+
|        File Writing Summary       |              Filename             |
+-----------------------------------------------------------------------+
|SU2 binary restart                 |restart_flow_G9.dat                |
|Paraview                           |flow_G9.vtu                        |
|Paraview surface                   |surface_flow_G9.vtu                |
+-----------------------------------------------------------------------+
+-----------------------------------------------------------------------------+
|  Inner_Iter|     Min CFL|     Max CFL|      rms[P]|  Cauchy[CD]|          CD|
+-----------------------------------------------------------------------------+
|        2610|  4.5741e+01|  4.5741e+01|   -9.004972|  3.0084e-05|    0.040223|
|        2620|  4.5741e+01|  4.5741e+01|   -9.004849|  3.0448e-05|    0.040190|
|        2630|  4.5741e+01|  4.5741e+01|   -9.004411|  3.0780e-05|    0.040157|
|        2640|  4.5741e+01|  4.5741e+01|   -9.003687|  3.1082e-05|    0.040124|
|        2650|  4.5741e+01|  4.5741e+01|   -9.002621|  3.1358e-05|    0.040091|
|        2660|  4.5741e+01|  4.5741e+01|   -9.001003|  3.1607e-05|    0.040058|
|        2670|  4.5741e+01|  4.5741e+01|   -8.998340|  3.1827e-05|    0.040025|
|        2680|  4.5741e+01|  4.5741e+01|   -8.993636|  3.2013e-05|    0.039993|
|        2690|  4.5741e+01|  4.5741e+01|   -8.985110|  3.2163e-05|    0.039960|
|        2700|  4.5741e+01|  4.5741e+01|   -8.969903|  3.2281e-05|    0.039928|
|        2710|  4.5741e+01|  4.5741e+01|   -8.943915|  3.2373e-05|    0.039896|
|        2720|  4.5741e+01|  4.5741e+01|   -8.902407|  3.2444e-05|    0.039863|
|        2730|  4.5741e+01|  4.5741e+01|   -8.841651|  3.2495e-05|    0.039831|
|        2740|  4.5741e+01|  4.5741e+01|   -8.760986|  3.2528e-05|    0.039800|
|        2750|  4.5741e+01|  4.5741e+01|   -8.663373|  3.2544e-05|    0.039768|
|        2760|  4.5741e+01|  4.5741e+01|   -8.553994|  3.2545e-05|    0.039736|
|        2770|  4.5741e+01|  4.5741e+01|   -8.438438|  3.2531e-05|    0.039705|
|        2780|  4.5741e+01|  4.5741e+01|   -8.322101|  3.2502e-05|    0.039673|
|        2790|  4.5741e+01|  4.5741e+01|   -8.210636|  3.2459e-05|    0.039642|
|        2800|  7.9040e+00|  7.9040e+00|   -8.396250|  3.2218e-05|    0.039615|
+-----------------------------------------------------------------------+
|        File Writing Summary       |              Filename             |
+-----------------------------------------------------------------------+
|SU2 binary restart                 |restart_flow_G9.dat                |
|Paraview                           |flow_G9.vtu                        |
|Paraview surface                   |surface_flow_G9.vtu                |
+-----------------------------------------------------------------------+
+-----------------------------------------------------------------------------+
|  Inner_Iter|     Min CFL|     Max CFL|      rms[P]|  Cauchy[CD]|          CD|
+-----------------------------------------------------------------------------+
|        2810|  4.8939e+01|  4.8939e+01|   -9.038550|  3.1479e-05|    0.039601|
|        2820|  2.5252e+01|  2.5252e+01|   -9.043591|  3.0575e-05|    0.039590|
|        2830|  1.3029e+01|  1.3029e+01|   -9.043274|  2.9872e-05|    0.039575|
|        2840|  6.7228e+00|  6.7228e+00|   -9.039970|  2.9164e-05|    0.039559|
|        2850|  4.1626e+01|  4.1626e+01|   -9.048278|  2.8316e-05|    0.039548|
|        2860|  2.1478e+01|  2.1478e+01|   -9.050978|  2.7466e-05|    0.039536|
|        2870|  4.4537e+01|  4.4537e+01|   -9.048326|  2.7184e-05|    0.039510|
|        2880|  4.4537e+01|  4.4537e+01|   -9.052152|  2.7074e-05|    0.039480|
|        2890|  4.4537e+01|  4.4537e+01|   -9.056619|  2.6969e-05|    0.039450|
|        2900|  4.4537e+01|  4.4537e+01|   -9.060885|  2.6866e-05|    0.039419|
|        2910|  4.4537e+01|  4.4537e+01|   -9.064876|  2.6772e-05|    0.039389|
|        2920|  4.4537e+01|  4.4537e+01|   -9.069253|  2.6685e-05|    0.039358|
|        2930|  4.4537e+01|  4.4537e+01|   -9.074057|  2.6600e-05|    0.039328|
|        2940|  4.4537e+01|  4.4537e+01|   -9.079065|  2.6521e-05|    0.039297|
|        2950|  4.4537e+01|  4.4537e+01|   -9.084094|  2.6447e-05|    0.039267|
|        2960|  4.4537e+01|  4.4537e+01|   -9.089170|  2.6375e-05|    0.039236|
|        2970|  4.4537e+01|  4.4537e+01|   -9.094419|  2.6311e-05|    0.039206|
|        2980|  4.4537e+01|  4.4537e+01|   -9.099761|  2.6254e-05|    0.039175|
|        2990|  4.4537e+01|  4.4537e+01|   -9.105003|  2.6201e-05|    0.039145|
|        3000|  4.4537e+01|  4.4537e+01|   -9.110141|  2.6151e-05|    0.039114|
+-----------------------------------------------------------------------+
|        File Writing Summary       |              Filename             |
+-----------------------------------------------------------------------+
|SU2 binary restart                 |restart_flow_G9.dat                |
|Paraview                           |flow_G9.vtu                        |
|Paraview surface                   |surface_flow_G9.vtu                |
+-----------------------------------------------------------------------+
+-----------------------------------------------------------------------------+
|  Inner_Iter|     Min CFL|     Max CFL|      rms[P]|  Cauchy[CD]|          CD|
+-----------------------------------------------------------------------------+
|        3010|  4.4537e+01|  4.4537e+01|   -9.115235|  2.6105e-05|    0.039084|
|        3020|  4.4537e+01|  4.4537e+01|   -9.120343|  2.6069e-05|    0.039053|
|        3030|  4.4537e+01|  4.4537e+01|   -9.125525|  2.6044e-05|    0.039022|
|        3040|  4.4537e+01|  4.4537e+01|   -9.130791|  2.6027e-05|    0.038991|
|        3050|  4.4537e+01|  4.4537e+01|   -9.136120|  2.6203e-05|    0.038960|
|        3060|  4.4537e+01|  4.4537e+01|   -9.141382|  2.6868e-05|    0.038929|
|        3070|  4.4537e+01|  4.4537e+01|   -9.146459|  2.7693e-05|    0.038898|
|        3080|  4.4537e+01|  4.4537e+01|   -9.151283|  2.8312e-05|    0.038867|
|        3090|  4.4537e+01|  4.4537e+01|   -9.155851|  2.8933e-05|    0.038836|
|        3100|  4.4537e+01|  4.4537e+01|   -9.160165|  2.9692e-05|    0.038805|
|        3110|  4.4537e+01|  4.4537e+01|   -9.164250|  3.0451e-05|    0.038775|
|        3120|  4.4537e+01|  4.4537e+01|   -9.168142|  3.0643e-05|    0.038744|
|        3130|  4.4537e+01|  4.4537e+01|   -9.171818|  3.0663e-05|    0.038713|
|        3140|  4.4537e+01|  4.4537e+01|   -9.175246|  3.0677e-05|    0.038683|
|        3150|  4.4537e+01|  4.4537e+01|   -9.178444|  3.0689e-05|    0.038652|
|        3160|  4.4537e+01|  4.4537e+01|   -9.181415|  3.0689e-05|    0.038622|
|        3170|  4.4537e+01|  4.4537e+01|   -9.184188|  3.0680e-05|    0.038591|
|        3180|  4.4537e+01|  4.4537e+01|   -9.186772|  3.0666e-05|    0.038561|
|        3190|  4.4537e+01|  4.4537e+01|   -9.189189|  3.0645e-05|    0.038531|
|        3200|  4.4537e+01|  4.4537e+01|   -9.191471|  3.0617e-05|    0.038501|
+-----------------------------------------------------------------------+
|        File Writing Summary       |              Filename             |
+-----------------------------------------------------------------------+
|SU2 binary restart                 |restart_flow_G9.dat                |
|Paraview                           |flow_G9.vtu                        |
|Paraview surface                   |surface_flow_G9.vtu                |
+-----------------------------------------------------------------------+
+-----------------------------------------------------------------------------+
|  Inner_Iter|     Min CFL|     Max CFL|      rms[P]|  Cauchy[CD]|          CD|
+-----------------------------------------------------------------------------+
|        3210|  4.4537e+01|  4.4537e+01|   -9.193610|  3.0583e-05|    0.038472|
|        3220|  4.4537e+01|  4.4537e+01|   -9.195591|  3.0540e-05|    0.038442|
|        3230|  4.4537e+01|  4.4537e+01|   -9.197391|  3.0486e-05|    0.038413|
|        3240|  4.4537e+01|  4.4537e+01|   -9.199025|  3.0424e-05|    0.038384|
|        3250|  4.4537e+01|  4.4537e+01|   -9.200570|  3.0352e-05|    0.038355|
|        3260|  4.4537e+01|  4.4537e+01|   -9.202088|  3.0269e-05|    0.038327|
|        3270|  4.4537e+01|  4.4537e+01|   -9.203656|  3.0169e-05|    0.038299|
|        3280|  4.4537e+01|  4.4537e+01|   -9.205265|  3.0051e-05|    0.038271|
|        3290|  4.4537e+01|  4.4537e+01|   -9.206852|  2.9916e-05|    0.038243|
|        3300|  4.4537e+01|  4.4537e+01|   -9.208292|  2.9767e-05|    0.038216|
|        3310|  4.4537e+01|  4.4537e+01|   -9.209457|  2.9608e-05|    0.038189|
|        3320|  4.4537e+01|  4.4537e+01|   -9.210217|  2.9439e-05|    0.038162|
|        3330|  4.4537e+01|  4.4537e+01|   -9.210368|  2.9258e-05|    0.038136|
|        3340|  4.4537e+01|  4.4537e+01|   -9.209587|  2.9068e-05|    0.038109|
|        3350|  4.4537e+01|  4.4537e+01|   -9.207303|  2.8868e-05|    0.038084|
|        3360|  4.4537e+01|  4.4537e+01|   -9.202568|  2.8661e-05|    0.038058|
|        3370|  4.4537e+01|  4.4537e+01|   -9.193949|  2.8445e-05|    0.038033|
|        3380|  4.4537e+01|  4.4537e+01|   -9.179397|  2.8220e-05|    0.038008|
|        3390|  4.4537e+01|  4.4537e+01|   -9.156293|  2.7983e-05|    0.037983|
|        3400|  4.4537e+01|  4.4537e+01|   -9.121756|  2.7737e-05|    0.037959|
+-----------------------------------------------------------------------+
|        File Writing Summary       |              Filename             |
+-----------------------------------------------------------------------+
|SU2 binary restart                 |restart_flow_G9.dat                |
|Paraview                           |flow_G9.vtu                        |
|Paraview surface                   |surface_flow_G9.vtu                |
+-----------------------------------------------------------------------+
+-----------------------------------------------------------------------------+
|  Inner_Iter|     Min CFL|     Max CFL|      rms[P]|  Cauchy[CD]|          CD|
+-----------------------------------------------------------------------------+
|        3410|  4.4537e+01|  4.4537e+01|   -9.073429|  2.7483e-05|    0.037934|
|        3420|  4.4537e+01|  4.4537e+01|   -9.010420|  2.7225e-05|    0.037911|
|        3430|  4.4537e+01|  4.4537e+01|   -8.933723|  2.6963e-05|    0.037887|
|        3440|  4.4537e+01|  4.4537e+01|   -8.845837|  2.6698e-05|    0.037864|
|        3450|  4.4537e+01|  4.4537e+01|   -8.749869|  2.6432e-05|    0.037840|
|        3460|  4.4537e+01|  4.4537e+01|   -8.648829|  2.6165e-05|    0.037817|
|        3470|  4.4537e+01|  4.4537e+01|   -8.545365|  2.5899e-05|    0.037795|
|        3480|  4.4537e+01|  4.4537e+01|   -8.441875|  2.5634e-05|    0.037772|
|        3490|  5.3444e+01|  5.3444e+01|   -8.340909|  2.5372e-05|    0.037750|
|        3500|  2.7576e+01|  2.7576e+01|   -9.226943|  2.4559e-05|    0.037741|
|        3510|  1.4229e+01|  1.4229e+01|   -9.228418|  2.3813e-05|    0.037731|
|        3520|  7.3417e+00|  7.3417e+00|   -9.216078|  2.3172e-05|    0.037719|
|        3530|  4.5458e+01|  4.5458e+01|   -9.226074|  2.2436e-05|    0.037710|
|        3540|  4.5458e+01|  4.5458e+01|   -9.219030|  2.2219e-05|    0.037688|
|        3550|  1.1311e+01|  1.1311e+01|   -9.223577|  2.1638e-05|    0.037675|
|        3560|  5.8364e+00|  5.8364e+00|   -9.218930|  2.1031e-05|    0.037663|
|        3570|  3.6138e+01|  3.6138e+01|   -9.226520|  2.0259e-05|    0.037656|
|        3580|  4.3365e+01|  4.3365e+01|   -9.220030|  2.0024e-05|    0.037635|
|        3590|  4.3365e+01|  4.3365e+01|   -9.219331|  1.9814e-05|    0.037614|
|        3600|  4.3365e+01|  4.3365e+01|   -9.219085|  1.9618e-05|    0.037593|
+-----------------------------------------------------------------------+
|        File Writing Summary       |              Filename             |
+-----------------------------------------------------------------------+
|SU2 binary restart                 |restart_flow_G9.dat                |
|Paraview                           |flow_G9.vtu                        |
|Paraview surface                   |surface_flow_G9.vtu                |
+-----------------------------------------------------------------------+
+-----------------------------------------------------------------------------+
|  Inner_Iter|     Min CFL|     Max CFL|      rms[P]|  Cauchy[CD]|          CD|
+-----------------------------------------------------------------------------+
|        3610|  4.3365e+01|  4.3365e+01|   -9.219931|  1.9429e-05|    0.037572|
|        3620|  4.3365e+01|  4.3365e+01|   -9.220597|  1.9249e-05|    0.037552|
|        3630|  4.3365e+01|  4.3365e+01|   -9.221055|  1.9077e-05|    0.037531|
|        3640|  4.3365e+01|  4.3365e+01|   -9.222034|  1.8914e-05|    0.037510|
|        3650|  4.3365e+01|  4.3365e+01|   -9.223412|  1.8759e-05|    0.037490|
|        3660|  4.3365e+01|  4.3365e+01|   -9.224742|  1.8610e-05|    0.037469|
|        3670|  4.3365e+01|  4.3365e+01|   -9.226259|  1.8468e-05|    0.037449|
|        3680|  4.3365e+01|  4.3365e+01|   -9.228087|  1.8334e-05|    0.037429|
|        3690|  4.3365e+01|  4.3365e+01|   -9.230045|  1.8206e-05|    0.037408|
|        3700|  4.3365e+01|  4.3365e+01|   -9.232058|  1.8085e-05|    0.037388|
|        3710|  4.3365e+01|  4.3365e+01|   -9.234125|  1.7972e-05|    0.037368|
|        3720|  4.3365e+01|  4.3365e+01|   -9.236237|  1.7867e-05|    0.037348|
|        3730|  4.3365e+01|  4.3365e+01|   -9.238428|  1.7767e-05|    0.037328|
|        3740|  4.3365e+01|  4.3365e+01|   -9.240653|  1.7671e-05|    0.037308|
|        3750|  4.3365e+01|  4.3365e+01|   -9.242919|  1.8134e-05|    0.037288|
|        3760|  4.3365e+01|  4.3365e+01|   -9.245225|  1.8537e-05|    0.037268|
|        3770|  4.3365e+01|  4.3365e+01|   -9.247528|  1.8843e-05|    0.037248|
|        3780|  4.3365e+01|  4.3365e+01|   -9.249761|  1.9252e-05|    0.037229|
|        3790|  4.3365e+01|  4.3365e+01|   -9.251944|  1.9149e-05|    0.037209|
|        3800|  4.3365e+01|  4.3365e+01|   -9.254085|  1.9416e-05|    0.037189|
+-----------------------------------------------------------------------+
|        File Writing Summary       |              Filename             |
+-----------------------------------------------------------------------+
|SU2 binary restart                 |restart_flow_G9.dat                |
|Paraview                           |flow_G9.vtu                        |
|Paraview surface                   |surface_flow_G9.vtu                |
+-----------------------------------------------------------------------+
+-----------------------------------------------------------------------------+
|  Inner_Iter|     Min CFL|     Max CFL|      rms[P]|  Cauchy[CD]|          CD|
+-----------------------------------------------------------------------------+
|        3810|  4.3365e+01|  4.3365e+01|   -9.256156|  1.9717e-05|    0.037170|
|        3820|  4.3365e+01|  4.3365e+01|   -9.258137|  2.0194e-05|    0.037151|
|        3830|  4.3365e+01|  4.3365e+01|   -9.260045|  2.0141e-05|    0.037131|
|        3840|  4.3365e+01|  4.3365e+01|   -9.261907|  2.0071e-05|    0.037112|
|        3850|  4.3365e+01|  4.3365e+01|   -9.263723|  1.9995e-05|    0.037093|
|        3860|  4.3365e+01|  4.3365e+01|   -9.265457|  1.9918e-05|    0.037074|
|        3870|  4.3365e+01|  4.3365e+01|   -9.267092|  1.9839e-05|    0.037056|
|        3880|  4.3365e+01|  4.3365e+01|   -9.268617|  1.9758e-05|    0.037037|
|        3890|  4.3365e+01|  4.3365e+01|   -9.270047|  1.9674e-05|    0.037018|
|        3900|  4.3365e+01|  4.3365e+01|   -9.271371|  1.9589e-05|    0.037000|
|        3910|  4.3365e+01|  4.3365e+01|   -9.272600|  1.9504e-05|    0.036982|
|        3920|  4.3365e+01|  4.3365e+01|   -9.273710|  1.9416e-05|    0.036963|
|        3930|  4.3365e+01|  4.3365e+01|   -9.274694|  1.9327e-05|    0.036945|
|        3940|  4.3365e+01|  4.3365e+01|   -9.275525|  1.9235e-05|    0.036928|
|        3950|  4.3365e+01|  4.3365e+01|   -9.276217|  1.9139e-05|    0.036910|
|        3960|  4.3365e+01|  4.3365e+01|   -9.276779|  1.9038e-05|    0.036892|
|        3970|  4.3365e+01|  4.3365e+01|   -9.277241|  1.8932e-05|    0.036875|
|        3980|  4.3365e+01|  4.3365e+01|   -9.277632|  1.8822e-05|    0.036857|
|        3990|  4.3365e+01|  4.3365e+01|   -9.277947|  1.8709e-05|    0.036840|
|        4000|  4.3365e+01|  4.3365e+01|   -9.278180|  1.8593e-05|    0.036823|
+-----------------------------------------------------------------------+
|        File Writing Summary       |              Filename             |
+-----------------------------------------------------------------------+
|SU2 binary restart                 |restart_flow_G9.dat                |
|Paraview                           |flow_G9.vtu                        |
|Paraview surface                   |surface_flow_G9.vtu                |
+-----------------------------------------------------------------------+
+-----------------------------------------------------------------------------+
|  Inner_Iter|     Min CFL|     Max CFL|      rms[P]|  Cauchy[CD]|          CD|
+-----------------------------------------------------------------------------+
|        4010|  4.3365e+01|  4.3365e+01|   -9.278300|  1.8473e-05|    0.036806|
|        4020|  4.3365e+01|  4.3365e+01|   -9.278284|  1.8350e-05|    0.036789|
|        4030|  4.3365e+01|  4.3365e+01|   -9.278148|  1.8226e-05|    0.036773|
|        4040|  4.3365e+01|  4.3365e+01|   -9.277885|  1.8101e-05|    0.036756|
|        4050|  4.3365e+01|  4.3365e+01|   -9.277517|  1.7977e-05|    0.036740|
|        4060|  4.3365e+01|  4.3365e+01|   -9.277067|  1.7853e-05|    0.036724|
|        4070|  4.3365e+01|  4.3365e+01|   -9.276538|  1.7728e-05|    0.036708|
|        4080|  4.3365e+01|  4.3365e+01|   -9.275944|  1.7603e-05|    0.036691|
|        4090|  4.3365e+01|  4.3365e+01|   -9.275233|  1.7477e-05|    0.036675|
|        4100|  4.3365e+01|  4.3365e+01|   -9.274362|  1.7351e-05|    0.036660|
|        4110|  4.3365e+01|  4.3365e+01|   -9.273223|  1.7226e-05|    0.036644|
|        4120|  4.3365e+01|  4.3365e+01|   -9.271656|  1.7101e-05|    0.036628|
|        4130|  4.3365e+01|  4.3365e+01|   -9.269427|  1.6977e-05|    0.036612|
|        4140|  4.3365e+01|  4.3365e+01|   -9.266181|  1.6855e-05|    0.036597|
|        4150|  4.3365e+01|  4.3365e+01|   -9.261436|  1.6736e-05|    0.036581|
|        4160|  4.3365e+01|  4.3365e+01|   -9.254487|  1.6620e-05|    0.036566|
|        4170|  4.3365e+01|  4.3365e+01|   -9.244373|  1.6507e-05|    0.036551|
|        4180|  4.3365e+01|  4.3365e+01|   -9.229809|  1.6397e-05|    0.036536|
|        4190|  4.3365e+01|  4.3365e+01|   -9.209274|  1.6290e-05|    0.036520|
|        4200|  4.3365e+01|  4.3365e+01|   -9.181165|  1.6188e-05|    0.036505|
+-----------------------------------------------------------------------+
|        File Writing Summary       |              Filename             |
+-----------------------------------------------------------------------+
|SU2 binary restart                 |restart_flow_G9.dat                |
|Paraview                           |flow_G9.vtu                        |
|Paraview surface                   |surface_flow_G9.vtu                |
+-----------------------------------------------------------------------+
+-----------------------------------------------------------------------------+
|  Inner_Iter|     Min CFL|     Max CFL|      rms[P]|  Cauchy[CD]|          CD|
+-----------------------------------------------------------------------------+
|        4210|  4.3365e+01|  4.3365e+01|   -9.144127|  1.6090e-05|    0.036490|
|        4220|  4.3365e+01|  4.3365e+01|   -9.097412|  1.5997e-05|    0.036475|
|        4230|  4.3365e+01|  4.3365e+01|   -9.041120|  1.5908e-05|    0.036460|
|        4240|  4.3365e+01|  4.3365e+01|   -8.976185|  1.5824e-05|    0.036445|
|        4250|  4.3365e+01|  4.3365e+01|   -8.904124|  1.5745e-05|    0.036430|
|        4260|  4.3365e+01|  4.3365e+01|   -8.826669|  1.5671e-05|    0.036414|
|        4270|  4.3365e+01|  4.3365e+01|   -8.745495|  1.5602e-05|    0.036399|
|        4280|  4.3365e+01|  4.3365e+01|   -8.662126|  1.5537e-05|    0.036384|
|        4290|  4.3365e+01|  4.3365e+01|   -8.577935|  1.5477e-05|    0.036369|
|        4300|  4.3365e+01|  4.3365e+01|   -8.494218|  1.5421e-05|    0.036354|
|        4310|  4.3365e+01|  4.3365e+01|   -8.412347|  1.5368e-05|    0.036340|
|        4320|  6.2446e+00|  6.2446e+00|   -8.325982|  1.5277e-05|    0.036326|
|        4330|  3.8665e+01|  3.8665e+01|   -9.289312|  1.4864e-05|    0.036320|
|        4340|  1.9950e+01|  1.9950e+01|   -9.291788|  1.4445e-05|    0.036314|
|        4350|  1.0294e+01|  1.0294e+01|   -9.285313|  1.4117e-05|    0.036307|
|        4360|  5.3114e+00|  5.3114e+00|   -9.286385|  1.3788e-05|    0.036299|
|        4370|  3.2887e+01|  3.2887e+01|   -9.292618|  1.3349e-05|    0.036294|
|        4380|  1.6969e+01|  1.6969e+01|   -9.293029|  1.2971e-05|    0.036288|
|        4390|  4.2224e+01|  4.2224e+01|   -9.287686|  1.2813e-05|    0.036277|
|        4400|  4.2224e+01|  4.2224e+01|   -9.287483|  1.2775e-05|    0.036262|
+-----------------------------------------------------------------------+
|        File Writing Summary       |              Filename             |
+-----------------------------------------------------------------------+
|SU2 binary restart                 |restart_flow_G9.dat                |
|Paraview                           |flow_G9.vtu                        |
|Paraview surface                   |surface_flow_G9.vtu                |
+-----------------------------------------------------------------------+
+-----------------------------------------------------------------------------+
|  Inner_Iter|     Min CFL|     Max CFL|      rms[P]|  Cauchy[CD]|          CD|
+-----------------------------------------------------------------------------+
|        4410|  4.2224e+01|  4.2224e+01|   -9.287913|  1.2738e-05|    0.036248|
|        4420|  4.2224e+01|  4.2224e+01|   -9.288237|  1.2704e-05|    0.036233|
|        4430|  4.2224e+01|  4.2224e+01|   -9.288343|  1.2675e-05|    0.036219|
|        4440|  4.2224e+01|  4.2224e+01|   -9.288602|  1.2650e-05|    0.036204|
|        4450|  4.2224e+01|  4.2224e+01|   -9.289115|  1.2628e-05|    0.036189|
|        4460|  4.2224e+01|  4.2224e+01|   -9.289649|  1.2607e-05|    0.036175|
|        4470|  4.2224e+01|  4.2224e+01|   -9.289995|  1.2588e-05|    0.036160|
|        4480|  4.2224e+01|  4.2224e+01|   -9.290224|  1.2566e-05|    0.036146|
|        4490|  4.2224e+01|  4.2224e+01|   -9.290460|  1.2539e-05|    0.036131|
|        4500|  4.2224e+01|  4.2224e+01|   -9.290779|  1.2511e-05|    0.036117|
|        4510|  4.2224e+01|  4.2224e+01|   -9.290789|  1.2484e-05|    0.036102|
|        4520|  4.2224e+01|  4.2224e+01|   -9.291108|  1.2458e-05|    0.036088|
|        4530|  4.2224e+01|  4.2224e+01|   -9.291501|  1.2434e-05|    0.036074|
|        4540|  4.2224e+01|  4.2224e+01|   -9.291932|  1.2411e-05|    0.036059|
|        4550|  4.2224e+01|  4.2224e+01|   -9.292454|  1.2387e-05|    0.036045|
|        4560|  4.2224e+01|  4.2224e+01|   -9.293064|  1.2363e-05|    0.036030|
|        4570|  4.2224e+01|  4.2224e+01|   -9.293803|  1.2379e-05|    0.036016|
|        4580|  4.2224e+01|  4.2224e+01|   -9.294712|  1.2722e-05|    0.036002|
|        4590|  4.2224e+01|  4.2224e+01|   -9.295753|  1.3073e-05|    0.035987|
|        4600|  4.2224e+01|  4.2224e+01|   -9.296851|  1.3337e-05|    0.035973|
+-----------------------------------------------------------------------+
|        File Writing Summary       |              Filename             |
+-----------------------------------------------------------------------+
|SU2 binary restart                 |restart_flow_G9.dat                |
|Paraview                           |flow_G9.vtu                        |
|Paraview surface                   |surface_flow_G9.vtu                |
+-----------------------------------------------------------------------+
+-----------------------------------------------------------------------------+
|  Inner_Iter|     Min CFL|     Max CFL|      rms[P]|  Cauchy[CD]|          CD|
+-----------------------------------------------------------------------------+
|        4610|  4.2224e+01|  4.2224e+01|   -9.297902|  1.3605e-05|    0.035959|
|        4620|  4.2224e+01|  4.2224e+01|   -9.298871|  1.3986e-05|    0.035945|
|        4630|  4.2224e+01|  4.2224e+01|   -9.299770|  1.4307e-05|    0.035930|
|        4640|  4.2224e+01|  4.2224e+01|   -9.300683|  1.4409e-05|    0.035916|
|        4650|  4.2224e+01|  4.2224e+01|   -9.301641|  1.4393e-05|    0.035902|
|        4660|  4.2224e+01|  4.2224e+01|   -9.302657|  1.4376e-05|    0.035888|
|        4670|  4.2224e+01|  4.2224e+01|   -9.303726|  1.4359e-05|    0.035874|
|        4680|  4.2224e+01|  4.2224e+01|   -9.304818|  1.4340e-05|    0.035860|
|        4690|  4.2224e+01|  4.2224e+01|   -9.305935|  1.4317e-05|    0.035846|
|        4700|  4.2224e+01|  4.2224e+01|   -9.307069|  1.4292e-05|    0.035832|
|        4710|  4.2224e+01|  4.2224e+01|   -9.308217|  1.4264e-05|    0.035818|
|        4720|  4.2224e+01|  4.2224e+01|   -9.309368|  1.4233e-05|    0.035804|
|        4730|  4.2224e+01|  4.2224e+01|   -9.310535|  1.4204e-05|    0.035790|
|        4740|  4.2224e+01|  4.2224e+01|   -9.311727|  1.4180e-05|    0.035777|
|        4750|  4.2224e+01|  4.2224e+01|   -9.312923|  1.4159e-05|    0.035763|
|        4760|  4.2224e+01|  4.2224e+01|   -9.314106|  1.4137e-05|    0.035749|
|        4770|  4.2224e+01|  4.2224e+01|   -9.315251|  1.4113e-05|    0.035735|
|        4780|  4.2224e+01|  4.2224e+01|   -9.316347|  1.4088e-05|    0.035721|
|        4790|  4.2224e+01|  4.2224e+01|   -9.317413|  1.4061e-05|    0.035708|
|        4800|  4.2224e+01|  4.2224e+01|   -9.318496|  1.4034e-05|    0.035694|
+-----------------------------------------------------------------------+
|        File Writing Summary       |              Filename             |
+-----------------------------------------------------------------------+
|SU2 binary restart                 |restart_flow_G9.dat                |
|Paraview                           |flow_G9.vtu                        |
|Paraview surface                   |surface_flow_G9.vtu                |
+-----------------------------------------------------------------------+
+-----------------------------------------------------------------------------+
|  Inner_Iter|     Min CFL|     Max CFL|      rms[P]|  Cauchy[CD]|          CD|
+-----------------------------------------------------------------------------+
|        4810|  4.2224e+01|  4.2224e+01|   -9.319612|  1.4007e-05|    0.035680|
|        4820|  4.2224e+01|  4.2224e+01|   -9.320756|  1.3979e-05|    0.035667|
|        4830|  4.2224e+01|  4.2224e+01|   -9.321898|  1.3952e-05|    0.035653|
|        4840|  4.2224e+01|  4.2224e+01|   -9.322991|  1.3924e-05|    0.035639|
|        4850|  4.2224e+01|  4.2224e+01|   -9.324010|  1.3896e-05|    0.035626|
|        4860|  4.2224e+01|  4.2224e+01|   -9.324948|  1.3867e-05|    0.035612|
|        4870|  4.2224e+01|  4.2224e+01|   -9.325821|  1.3838e-05|    0.035599|
|        4880|  4.2224e+01|  4.2224e+01|   -9.326634|  1.3810e-05|    0.035585|
|        4890|  4.2224e+01|  4.2224e+01|   -9.327437|  1.3784e-05|    0.035572|
|        4900|  4.2224e+01|  4.2224e+01|   -9.328238|  1.3760e-05|    0.035558|
|        4910|  4.2224e+01|  4.2224e+01|   -9.329052|  1.3737e-05|    0.035545|
|        4920|  4.2224e+01|  4.2224e+01|   -9.329888|  1.3714e-05|    0.035531|
|        4930|  4.2224e+01|  4.2224e+01|   -9.330755|  1.3688e-05|    0.035518|
|        4940|  4.2224e+01|  4.2224e+01|   -9.331660|  1.3662e-05|    0.035505|
|        4950|  4.2224e+01|  4.2224e+01|   -9.332587|  1.3637e-05|    0.035491|
|        4960|  4.2224e+01|  4.2224e+01|   -9.333524|  1.3613e-05|    0.035478|
|        4970|  4.2224e+01|  4.2224e+01|   -9.334454|  1.3591e-05|    0.035464|
|        4980|  4.2224e+01|  4.2224e+01|   -9.335347|  1.3569e-05|    0.035451|
|        4990|  4.2224e+01|  4.2224e+01|   -9.336210|  1.3548e-05|    0.035438|
|        5000|  4.2224e+01|  4.2224e+01|   -9.337054|  1.3525e-05|    0.035425|
+-----------------------------------------------------------------------+
|        File Writing Summary       |              Filename             |
+-----------------------------------------------------------------------+
|SU2 binary restart                 |restart_flow_G9.dat                |
|Paraview                           |flow_G9.vtu                        |
|Paraview surface                   |surface_flow_G9.vtu                |
+-----------------------------------------------------------------------+
+-----------------------------------------------------------------------------+
|  Inner_Iter|     Min CFL|     Max CFL|      rms[P]|  Cauchy[CD]|          CD|
+-----------------------------------------------------------------------------+
|        5010|  4.2224e+01|  4.2224e+01|   -9.337902|  1.3503e-05|    0.035411|
|        5020|  4.2224e+01|  4.2224e+01|   -9.338769|  1.3480e-05|    0.035398|
|        5030|  4.2224e+01|  4.2224e+01|   -9.339671|  1.3458e-05|    0.035385|
|        5040|  4.2224e+01|  4.2224e+01|   -9.340607|  1.3436e-05|    0.035372|
|        5050|  4.2224e+01|  4.2224e+01|   -9.341570|  1.3414e-05|    0.035359|
|        5060|  4.2224e+01|  4.2224e+01|   -9.342535|  1.3392e-05|    0.035345|
|        5070|  4.2224e+01|  4.2224e+01|   -9.343476|  1.3369e-05|    0.035332|
|        5080|  4.2224e+01|  4.2224e+01|   -9.344343|  1.3347e-05|    0.035319|
|        5090|  4.2224e+01|  4.2224e+01|   -9.345094|  1.3324e-05|    0.035306|
|        5100|  4.2224e+01|  4.2224e+01|   -9.345663|  1.3302e-05|    0.035293|
|        5110|  4.2224e+01|  4.2224e+01|   -9.345983|  1.3279e-05|    0.035280|
|        5120|  4.2224e+01|  4.2224e+01|   -9.345961|  1.3258e-05|    0.035267|
|        5130|  4.2224e+01|  4.2224e+01|   -9.345470|  1.3236e-05|    0.035254|
|        5140|  4.2224e+01|  4.2224e+01|   -9.344323|  1.3213e-05|    0.035241|
|        5150|  4.2224e+01|  4.2224e+01|   -9.342285|  1.3189e-05|    0.035229|
|        5160|  4.2224e+01|  4.2224e+01|   -9.339037|  1.3164e-05|    0.035216|
|        5170|  4.2224e+01|  4.2224e+01|   -9.334187|  1.3138e-05|    0.035203|
|        5180|  4.2224e+01|  4.2224e+01|   -9.327248|  1.3111e-05|    0.035190|
|        5190|  4.2224e+01|  4.2224e+01|   -9.317659|  1.3085e-05|    0.035177|
|        5200|  4.2224e+01|  4.2224e+01|   -9.304796|  1.3059e-05|    0.035165|
+-----------------------------------------------------------------------+
|        File Writing Summary       |              Filename             |
+-----------------------------------------------------------------------+
|SU2 binary restart                 |restart_flow_G9.dat                |
|Paraview                           |flow_G9.vtu                        |
|Paraview surface                   |surface_flow_G9.vtu                |
+-----------------------------------------------------------------------+
+-----------------------------------------------------------------------------+
|  Inner_Iter|     Min CFL|     Max CFL|      rms[P]|  Cauchy[CD]|          CD|
+-----------------------------------------------------------------------------+
|        5210|  4.2224e+01|  4.2224e+01|   -9.288008|  1.3032e-05|    0.035152|
|        5220|  4.2224e+01|  4.2224e+01|   -9.266692|  1.3005e-05|    0.035139|
|        5230|  4.2224e+01|  4.2224e+01|   -9.240366|  1.2978e-05|    0.035127|
|        5240|  4.2224e+01|  4.2224e+01|   -9.208749|  1.2950e-05|    0.035114|
|        5250|  4.2224e+01|  4.2224e+01|   -9.171829|  1.2921e-05|    0.035102|
|        5260|  4.2224e+01|  4.2224e+01|   -9.129833|  1.2892e-05|    0.035089|
|        5270|  4.2224e+01|  4.2224e+01|   -9.083228|  1.2863e-05|    0.035077|
|        5280|  4.2224e+01|  4.2224e+01|   -9.032626|  1.2833e-05|    0.035064|
|        5290|  4.2224e+01|  4.2224e+01|   -8.978713|  1.2802e-05|    0.035052|
|        5300|  4.2224e+01|  4.2224e+01|   -8.922185|  1.2771e-05|    0.035039|
|        5310|  4.2224e+01|  4.2224e+01|   -8.863700|  1.2740e-05|    0.035027|
|        5320|  4.2224e+01|  4.2224e+01|   -8.803858|  1.2708e-05|    0.035015|
|        5330|  4.2224e+01|  4.2224e+01|   -8.743200|  1.2677e-05|    0.035002|
|        5340|  8.7555e+00|  8.7555e+00|   -9.336311|  1.2529e-05|    0.034993|
|        5350|  4.5177e+00|  4.5177e+00|   -9.388061|  1.2275e-05|    0.034986|
|        5360|  2.7972e+01|  2.7972e+01|   -9.393681|  1.1890e-05|    0.034983|
|        5370|  1.4433e+01|  1.4433e+01|   -9.394557|  1.1599e-05|    0.034977|
|        5380|  4.3097e+01|  4.3097e+01|   -9.388699|  1.1444e-05|    0.034968|
|        5390|  4.3097e+01|  4.3097e+01|   -9.389018|  1.1424e-05|    0.034956|
|        5400|  4.3097e+01|  4.3097e+01|   -9.390331|  1.1404e-05|    0.034943|
+-----------------------------------------------------------------------+
|        File Writing Summary       |              Filename             |
+-----------------------------------------------------------------------+
|SU2 binary restart                 |restart_flow_G9.dat                |
|Paraview                           |flow_G9.vtu                        |
|Paraview surface                   |surface_flow_G9.vtu                |
+-----------------------------------------------------------------------+
+-----------------------------------------------------------------------------+
|  Inner_Iter|     Min CFL|     Max CFL|      rms[P]|  Cauchy[CD]|          CD|
+-----------------------------------------------------------------------------+
|        5410|  4.3097e+01|  4.3097e+01|   -9.391831|  1.1383e-05|    0.034931|
|        5420|  4.3097e+01|  4.3097e+01|   -9.393116|  1.1363e-05|    0.034919|
|        5430|  4.3097e+01|  4.3097e+01|   -9.394336|  1.1344e-05|    0.034907|
|        5440|  4.3097e+01|  4.3097e+01|   -9.395710|  1.1325e-05|    0.034894|
|        5450|  4.3097e+01|  4.3097e+01|   -9.397244|  1.1308e-05|    0.034882|
|        5460|  4.3097e+01|  4.3097e+01|   -9.398692|  1.1291e-05|    0.034870|
|        5470|  4.3097e+01|  4.3097e+01|   -9.400005|  1.1273e-05|    0.034858|
|        5480|  4.3097e+01|  4.3097e+01|   -9.401316|  1.1252e-05|    0.034845|
|        5490|  4.3097e+01|  4.3097e+01|   -9.402672|  1.1229e-05|    0.034833|
|        5500|  4.3097e+01|  4.3097e+01|   -9.404100|  1.1206e-05|    0.034821|
|        5510|  4.3097e+01|  4.3097e+01|   -9.405583|  1.1185e-05|    0.034809|
|        5520|  4.3097e+01|  4.3097e+01|   -9.407060|  1.1166e-05|    0.034797|
|        5530|  4.3097e+01|  4.3097e+01|   -9.408543|  1.1147e-05|    0.034785|
|        5540|  4.3097e+01|  4.3097e+01|   -9.410019|  1.1128e-05|    0.034774|
|        5550|  4.3097e+01|  4.3097e+01|   -9.411444|  1.1107e-05|    0.034762|
|        5560|  4.3097e+01|  4.3097e+01|   -9.412849|  1.1087e-05|    0.034750|
|        5570|  4.3097e+01|  4.3097e+01|   -9.414313|  1.1067e-05|    0.034738|
|        5580|  4.3097e+01|  4.3097e+01|   -9.415829|  1.1048e-05|    0.034726|
|        5590|  4.3097e+01|  4.3097e+01|   -9.417352|  1.1145e-05|    0.034714|
|        5600|  4.3097e+01|  4.3097e+01|   -9.418845|  1.1348e-05|    0.034703|
+-----------------------------------------------------------------------+
|        File Writing Summary       |              Filename             |
+-----------------------------------------------------------------------+
|SU2 binary restart                 |restart_flow_G9.dat                |
|Paraview                           |flow_G9.vtu                        |
|Paraview surface                   |surface_flow_G9.vtu                |
+-----------------------------------------------------------------------+
+-----------------------------------------------------------------------------+
|  Inner_Iter|     Min CFL|     Max CFL|      rms[P]|  Cauchy[CD]|          CD|
+-----------------------------------------------------------------------------+
|        5610|  4.3097e+01|  4.3097e+01|   -9.420293|  1.1681e-05|    0.034691|
|        5620|  4.3097e+01|  4.3097e+01|   -9.421701|  1.1919e-05|    0.034679|
|        5630|  4.3097e+01|  4.3097e+01|   -9.423108|  1.2020e-05|    0.034668|
|        5640|  4.3097e+01|  4.3097e+01|   -9.424544|  1.1986e-05|    0.034656|
|        5650|  4.3097e+01|  4.3097e+01|   -9.425988|  1.1951e-05|    0.034645|
|        5660|  4.3097e+01|  4.3097e+01|   -9.427428|  1.1919e-05|    0.034633|
|        5670|  4.3097e+01|  4.3097e+01|   -9.428845|  1.1885e-05|    0.034622|
|        5680|  4.3097e+01|  4.3097e+01|   -9.430254|  1.1852e-05|    0.034610|
|        5690|  4.3097e+01|  4.3097e+01|   -9.431635|  1.1817e-05|    0.034599|
|        5700|  4.3097e+01|  4.3097e+01|   -9.433019|  1.1779e-05|    0.034588|
|        5710|  4.3097e+01|  4.3097e+01|   -9.434393|  1.1740e-05|    0.034576|
|        5720|  4.3097e+01|  4.3097e+01|   -9.435772|  1.1702e-05|    0.034565|
|        5730|  4.3097e+01|  4.3097e+01|   -9.437153|  1.1667e-05|    0.034554|
[...]
|       11120|  4.4344e+01|  4.4344e+01|  -10.233843|  1.6293e-06|    0.031900|
|       11130|  4.4344e+01|  4.4344e+01|  -10.235483|  1.6245e-06|    0.031899|
|       11140|  4.4344e+01|  4.4344e+01|  -10.237229|  1.6201e-06|    0.031897|
|       11150|  4.4344e+01|  4.4344e+01|  -10.238965|  1.6158e-06|    0.031895|
|       11160|  4.4344e+01|  4.4344e+01|  -10.240621|  1.6114e-06|    0.031893|
|       11170|  4.4344e+01|  4.4344e+01|  -10.242262|  1.6068e-06|    0.031892|
|       11180|  4.4344e+01|  4.4344e+01|  -10.243907|  1.6017e-06|    0.031890|
|       11190|  4.4344e+01|  4.4344e+01|  -10.245586|  1.5965e-06|    0.031888|
|       11200|  4.4344e+01|  4.4344e+01|  -10.247336|  1.5915e-06|    0.031887|
+-----------------------------------------------------------------------+
|        File Writing Summary       |              Filename             |
+-----------------------------------------------------------------------+
|SU2 binary restart                 |restart_flow_G9.dat                |
|Paraview                           |flow_G9.vtu                        |
|Paraview surface                   |surface_flow_G9.vtu                |
+-----------------------------------------------------------------------+
+-----------------------------------------------------------------------------+
|  Inner_Iter|     Min CFL|     Max CFL|      rms[P]|  Cauchy[CD]|          CD|
+-----------------------------------------------------------------------------+
|       11210|  4.4344e+01|  4.4344e+01|  -10.249093|  1.5868e-06|    0.031885|
|       11220|  4.4344e+01|  4.4344e+01|  -10.250859|  1.5823e-06|    0.031883|
|       11230|  4.4344e+01|  4.4344e+01|  -10.252613|  1.5777e-06|    0.031882|
|       11240|  4.4344e+01|  4.4344e+01|  -10.254310|  1.5729e-06|    0.031880|
|       11250|  4.4344e+01|  4.4344e+01|  -10.255994|  1.5679e-06|    0.031878|
|       11260|  4.4344e+01|  4.4344e+01|  -10.257719|  1.5631e-06|    0.031877|
|       11270|  4.4344e+01|  4.4344e+01|  -10.259479|  1.5586e-06|    0.031875|
|       11280|  4.4344e+01|  4.4344e+01|  -10.261243|  1.5543e-06|    0.031873|
|       11290|  4.4344e+01|  4.4344e+01|  -10.262991|  1.5901e-06|    0.031872|
|       11300|  4.4344e+01|  4.4344e+01|  -10.264703|  1.6226e-06|    0.031870|
|       11310|  4.4344e+01|  4.4344e+01|  -10.266390|  1.6479e-06|    0.031868|
|       11320|  4.4344e+01|  4.4344e+01|  -10.268087|  1.6870e-06|    0.031867|
|       11330|  4.4344e+01|  4.4344e+01|  -10.269815|  1.6821e-06|    0.031865|
|       11340|  4.4344e+01|  4.4344e+01|  -10.271576|  1.6754e-06|    0.031864|
|       11350|  4.4344e+01|  4.4344e+01|  -10.273345|  1.6689e-06|    0.031862|
|       11360|  4.4344e+01|  4.4344e+01|  -10.275105|  1.6625e-06|    0.031860|
|       11370|  4.4344e+01|  4.4344e+01|  -10.276847|  1.6564e-06|    0.031859|
|       11380|  4.4344e+01|  4.4344e+01|  -10.278564|  1.6499e-06|    0.031857|
|       11390|  4.4344e+01|  4.4344e+01|  -10.280264|  1.6429e-06|    0.031856|
|       11400|  4.4344e+01|  4.4344e+01|  -10.281963|  1.6358e-06|    0.031854|
+-----------------------------------------------------------------------+
|        File Writing Summary       |              Filename             |
+-----------------------------------------------------------------------+
|SU2 binary restart                 |restart_flow_G9.dat                |
|Paraview                           |flow_G9.vtu                        |
|Paraview surface                   |surface_flow_G9.vtu                |
+-----------------------------------------------------------------------+
+-----------------------------------------------------------------------------+
|  Inner_Iter|     Min CFL|     Max CFL|      rms[P]|  Cauchy[CD]|          CD|
+-----------------------------------------------------------------------------+
|       11410|  4.4344e+01|  4.4344e+01|  -10.283676|  1.6288e-06|    0.031853|
|       11420|  4.4344e+01|  4.4344e+01|  -10.285401|  1.6222e-06|    0.031851|
|       11430|  4.4344e+01|  4.4344e+01|  -10.287126|  1.6162e-06|    0.031850|
|       11440|  4.4344e+01|  4.4344e+01|  -10.288838|  1.6103e-06|    0.031848|
|       11450|  4.4344e+01|  4.4344e+01|  -10.290549|  1.6042e-06|    0.031847|
|       11460|  4.4344e+01|  4.4344e+01|  -10.292278|  1.5979e-06|    0.031845|
|       11470|  4.4344e+01|  4.4344e+01|  -10.294029|  1.5914e-06|    0.031843|
|       11480|  4.4344e+01|  4.4344e+01|  -10.295793|  1.5850e-06|    0.031842|
|       11490|  4.4344e+01|  4.4344e+01|  -10.297553|  1.5789e-06|    0.031840|
|       11500|  4.4344e+01|  4.4344e+01|  -10.299288|  1.5730e-06|    0.031839|
|       11510|  4.4344e+01|  4.4344e+01|  -10.300984|  1.5669e-06|    0.031837|
|       11520|  4.4344e+01|  4.4344e+01|  -10.302636|  1.5603e-06|    0.031836|
|       11530|  4.4344e+01|  4.4344e+01|  -10.304246|  1.5536e-06|    0.031834|
|       11540|  4.4344e+01|  4.4344e+01|  -10.305824|  1.5472e-06|    0.031833|
|       11550|  4.4344e+01|  4.4344e+01|  -10.307357|  1.5412e-06|    0.031832|
|       11560|  4.4344e+01|  4.4344e+01|  -10.308807|  1.5354e-06|    0.031830|
|       11570|  4.4344e+01|  4.4344e+01|  -10.310103|  1.5295e-06|    0.031829|
|       11580|  4.4344e+01|  4.4344e+01|  -10.311125|  1.5236e-06|    0.031827|
|       11590|  4.4344e+01|  4.4344e+01|  -10.311711|  1.5176e-06|    0.031826|
|       11600|  4.4344e+01|  4.4344e+01|  -10.311611|  1.5116e-06|    0.031824|
+-----------------------------------------------------------------------+
|        File Writing Summary       |              Filename             |
+-----------------------------------------------------------------------+
|SU2 binary restart                 |restart_flow_G9.dat                |
|Paraview                           |flow_G9.vtu                        |
|Paraview surface                   |surface_flow_G9.vtu                |
+-----------------------------------------------------------------------+
+-----------------------------------------------------------------------------+
|  Inner_Iter|     Min CFL|     Max CFL|      rms[P]|  Cauchy[CD]|          CD|
+-----------------------------------------------------------------------------+
|       11610|  4.4344e+01|  4.4344e+01|  -10.310453|  1.5055e-06|    0.031823|
|       11620|  4.4344e+01|  4.4344e+01|  -10.307687|  1.4994e-06|    0.031821|
|       11630|  4.4344e+01|  4.4344e+01|  -10.302461|  1.4933e-06|    0.031820|
|       11640|  4.4344e+01|  4.4344e+01|  -10.293609|  1.4874e-06|    0.031819|
|       11650|  4.4344e+01|  4.4344e+01|  -10.279572|  1.4817e-06|    0.031817|
|       11660|  4.4344e+01|  4.4344e+01|  -10.258462|  1.4759e-06|    0.031816|
|       11670|  4.4344e+01|  4.4344e+01|  -10.228319|  1.4701e-06|    0.031814|
|       11680|  4.4344e+01|  4.4344e+01|  -10.187547|  1.4642e-06|    0.031813|
|       11690|  4.4344e+01|  4.4344e+01|  -10.135410|  1.4584e-06|    0.031812|
|       11700|  4.4344e+01|  4.4344e+01|  -10.072300|  1.4525e-06|    0.031810|
|       11710|  4.4344e+01|  4.4344e+01|   -9.999594|  1.4468e-06|    0.031809|
|       11720|  4.4344e+01|  4.4344e+01|   -9.919201|  1.4410e-06|    0.031807|
|       11730|  4.4344e+01|  4.4344e+01|   -9.833066|  1.4353e-06|    0.031806|
|       11740|  4.4344e+01|  4.4344e+01|   -9.742871|  1.4295e-06|    0.031805|
|       11750|  4.4344e+01|  4.4344e+01|   -9.649913|  1.4237e-06|    0.031803|
|       11760|  4.4344e+01|  4.4344e+01|   -9.555133|  1.4181e-06|    0.031802|
|       11770|  1.5889e+01|  1.5889e+01|  -10.346110|  1.3879e-06|    0.031801|
|       11780|  8.1984e+00|  8.1984e+00|  -10.343323|  1.3558e-06|    0.031801|
|       11790|  5.0763e+01|  5.0763e+01|  -10.351978|  1.3227e-06|    0.031800|
|       11800|  2.6192e+01|  2.6192e+01|  -10.356278|  1.2828e-06|    0.031799|
+-----------------------------------------------------------------------+
|        File Writing Summary       |              Filename             |
+-----------------------------------------------------------------------+
|SU2 binary restart                 |restart_flow_G9.dat                |
|Paraview                           |flow_G9.vtu                        |
|Paraview surface                   |surface_flow_G9.vtu                |
+-----------------------------------------------------------------------+
+-----------------------------------------------------------------------------+
|  Inner_Iter|     Min CFL|     Max CFL|      rms[P]|  Cauchy[CD]|          CD|
+-----------------------------------------------------------------------------+
|       11810|  1.3515e+01|  1.3515e+01|  -10.357652|  1.2465e-06|    0.031799|
|       11820|  6.9733e+00|  6.9733e+00|  -10.350279|  1.2159e-06|    0.031798|
|       11830|  4.3177e+01|  4.3177e+01|  -10.356757|  1.1798e-06|    0.031798|
|       11840|  4.3177e+01|  4.3177e+01|  -10.353338|  1.1732e-06|    0.031796|
|       11850|  4.3177e+01|  4.3177e+01|  -10.354848|  1.1670e-06|    0.031795|
|       11860|  4.3177e+01|  4.3177e+01|  -10.356517|  1.1608e-06|    0.031794|
|       11870|  4.3177e+01|  4.3177e+01|  -10.358087|  1.1544e-06|    0.031793|
|       11880|  4.3177e+01|  4.3177e+01|  -10.359626|  1.1484e-06|    0.031791|
|       11890|  4.3177e+01|  4.3177e+01|  -10.361311|  1.1427e-06|    0.031790|
|       11900|  4.3177e+01|  4.3177e+01|  -10.363069|  1.1374e-06|    0.031789|
|       11910|  4.3177e+01|  4.3177e+01|  -10.364787|  1.1321e-06|    0.031787|
|       11920|  4.3177e+01|  4.3177e+01|  -10.366427|  1.1266e-06|    0.031786|
|       11930|  4.3177e+01|  4.3177e+01|  -10.368017|  1.1207e-06|    0.031785|
|       11940|  4.3177e+01|  4.3177e+01|  -10.369620|  1.1145e-06|    0.031784|
|       11950|  4.3177e+01|  4.3177e+01|  -10.371274|  1.1083e-06|    0.031782|
|       11960|  4.3177e+01|  4.3177e+01|  -10.372984|  1.1023e-06|    0.031781|
|       11970|  4.3177e+01|  4.3177e+01|  -10.374732|  1.0966e-06|    0.031780|
|       11980|  4.3177e+01|  4.3177e+01|  -10.376471|  1.0911e-06|    0.031779|
|       11990|  4.3177e+01|  4.3177e+01|  -10.378172|  1.0854e-06|    0.031778|
|       12000|  4.3177e+01|  4.3177e+01|  -10.379832|  1.0796e-06|    0.031776|
+-----------------------------------------------------------------------+
|        File Writing Summary       |              Filename             |
+-----------------------------------------------------------------------+
|SU2 binary restart                 |restart_flow_G9.dat                |
|Paraview                           |flow_G9.vtu                        |
|Paraview surface                   |surface_flow_G9.vtu                |
+-----------------------------------------------------------------------+
+-----------------------------------------------------------------------------+
|  Inner_Iter|     Min CFL|     Max CFL|      rms[P]|  Cauchy[CD]|          CD|
+-----------------------------------------------------------------------------+
|       12010|  4.3177e+01|  4.3177e+01|  -10.381497|  1.0737e-06|    0.031775|
|       12020|  4.3177e+01|  4.3177e+01|  -10.383219|  1.0928e-06|    0.031774|
|       12030|  4.3177e+01|  4.3177e+01|  -10.384991|  1.1141e-06|    0.031773|
|       12040|  4.3177e+01|  4.3177e+01|  -10.386772|  1.1366e-06|    0.031772|
|       12050|  4.3177e+01|  4.3177e+01|  -10.388521|  1.1655e-06|    0.031770|
|       12060|  4.3177e+01|  4.3177e+01|  -10.390210|  1.1906e-06|    0.031769|
|       12070|  4.3177e+01|  4.3177e+01|  -10.391856|  1.2099e-06|    0.031768|
|       12080|  4.3177e+01|  4.3177e+01|  -10.393498|  1.2348e-06|    0.031767|
|       12090|  4.3177e+01|  4.3177e+01|  -10.395173|  1.2303e-06|    0.031766|
|       12100|  4.3177e+01|  4.3177e+01|  -10.396889|  1.2257e-06|    0.031764|
|       12110|  4.3177e+01|  4.3177e+01|  -10.398629|  1.2211e-06|    0.031763|
|       12120|  4.3177e+01|  4.3177e+01|  -10.400370|  1.2167e-06|    0.031762|
|       12130|  4.3177e+01|  4.3177e+01|  -10.402094|  1.2122e-06|    0.031761|
|       12140|  4.3177e+01|  4.3177e+01|  -10.403791|  1.2073e-06|    0.031760|
|       12150|  4.3177e+01|  4.3177e+01|  -10.405468|  1.2020e-06|    0.031759|
|       12160|  4.3177e+01|  4.3177e+01|  -10.407139|  1.1966e-06|    0.031758|
|       12170|  4.3177e+01|  4.3177e+01|  -10.408827|  1.1914e-06|    0.031756|
|       12180|  4.3177e+01|  4.3177e+01|  -10.410531|  1.1867e-06|    0.031755|
|       12190|  4.3177e+01|  4.3177e+01|  -10.412234|  1.1824e-06|    0.031754|
|       12200|  4.3177e+01|  4.3177e+01|  -10.413920|  1.1782e-06|    0.031753|
+-----------------------------------------------------------------------+
|        File Writing Summary       |              Filename             |
+-----------------------------------------------------------------------+
|SU2 binary restart                 |restart_flow_G9.dat                |
|Paraview                           |flow_G9.vtu                        |
|Paraview surface                   |surface_flow_G9.vtu                |
+-----------------------------------------------------------------------+
+-----------------------------------------------------------------------------+
|  Inner_Iter|     Min CFL|     Max CFL|      rms[P]|  Cauchy[CD]|          CD|
+-----------------------------------------------------------------------------+
|       12210|  4.3177e+01|  4.3177e+01|  -10.415596|  1.1739e-06|    0.031752|
|       12220|  4.3177e+01|  4.3177e+01|  -10.417287|  1.1693e-06|    0.031751|
|       12230|  4.3177e+01|  4.3177e+01|  -10.419006|  1.1646e-06|    0.031750|
|       12240|  4.3177e+01|  4.3177e+01|  -10.420759|  1.1601e-06|    0.031749|
|       12250|  4.3177e+01|  4.3177e+01|  -10.422526|  1.1558e-06|    0.031747|
|       12260|  4.3177e+01|  4.3177e+01|  -10.424284|  1.1517e-06|    0.031746|
|       12270|  4.3177e+01|  4.3177e+01|  -10.426013|  1.1472e-06|    0.031745|
|       12280|  4.3177e+01|  4.3177e+01|  -10.427700|  1.1424e-06|    0.031744|
|       12290|  4.3177e+01|  4.3177e+01|  -10.429352|  1.1374e-06|    0.031743|
|       12300|  4.3177e+01|  4.3177e+01|  -10.430993|  1.1326e-06|    0.031742|
|       12310|  4.3177e+01|  4.3177e+01|  -10.432648|  1.1282e-06|    0.031741|
|       12320|  4.3177e+01|  4.3177e+01|  -10.434332|  1.1240e-06|    0.031740|
|       12330|  4.3177e+01|  4.3177e+01|  -10.436047|  1.1198e-06|    0.031739|
|       12340|  4.3177e+01|  4.3177e+01|  -10.437783|  1.1157e-06|    0.031738|
|       12350|  4.3177e+01|  4.3177e+01|  -10.439521|  1.1115e-06|    0.031737|
|       12360|  4.3177e+01|  4.3177e+01|  -10.441250|  1.1072e-06|    0.031736|
|       12370|  4.3177e+01|  4.3177e+01|  -10.442964|  1.1029e-06|    0.031735|
|       12380|  4.3177e+01|  4.3177e+01|  -10.444664|  1.0984e-06|    0.031734|
|       12390|  4.3177e+01|  4.3177e+01|  -10.446352|  1.0940e-06|    0.031732|
|       12400|  4.3177e+01|  4.3177e+01|  -10.448028|  1.0897e-06|    0.031731|
+-----------------------------------------------------------------------+
|        File Writing Summary       |              Filename             |
+-----------------------------------------------------------------------+
|SU2 binary restart                 |restart_flow_G9.dat                |
|Paraview                           |flow_G9.vtu                        |
|Paraview surface                   |surface_flow_G9.vtu                |
+-----------------------------------------------------------------------+
+-----------------------------------------------------------------------------+
|  Inner_Iter|     Min CFL|     Max CFL|      rms[P]|  Cauchy[CD]|          CD|
+-----------------------------------------------------------------------------+
|       12410|  4.3177e+01|  4.3177e+01|  -10.449690|  1.0856e-06|    0.031730|
|       12420|  4.3177e+01|  4.3177e+01|  -10.451329|  1.0815e-06|    0.031729|
|       12430|  4.3177e+01|  4.3177e+01|  -10.452938|  1.0774e-06|    0.031728|
|       12440|  4.3177e+01|  4.3177e+01|  -10.454511|  1.0732e-06|    0.031727|
|       12450|  4.3177e+01|  4.3177e+01|  -10.456038|  1.0690e-06|    0.031726|
|       12460|  4.3177e+01|  4.3177e+01|  -10.457497|  1.0647e-06|    0.031725|
|       12470|  4.3177e+01|  4.3177e+01|  -10.458850|  1.0606e-06|    0.031724|
|       12480|  4.3177e+01|  4.3177e+01|  -10.460052|  1.0565e-06|    0.031723|
|       12490|  4.3177e+01|  4.3177e+01|  -10.461029|  1.0524e-06|    0.031722|
|       12500|  4.3177e+01|  4.3177e+01|  -10.461681|  1.0482e-06|    0.031721|
|       12510|  4.3177e+01|  4.3177e+01|  -10.461875|  1.0440e-06|    0.031720|
|       12520|  4.3177e+01|  4.3177e+01|  -10.461423|  1.0399e-06|    0.031719|
|       12530|  4.3177e+01|  4.3177e+01|  -10.460070|  1.0359e-06|    0.031718|
|       12540|  4.3177e+01|  4.3177e+01|  -10.457452|  1.0320e-06|    0.031717|
|       12550|  4.3177e+01|  4.3177e+01|  -10.453098|  1.0282e-06|    0.031716|
|       12560|  4.3177e+01|  4.3177e+01|  -10.446391|  1.0243e-06|    0.031715|
|       12570|  4.3177e+01|  4.3177e+01|  -10.436564|  1.0203e-06|    0.031714|
|       12580|  4.3177e+01|  4.3177e+01|  -10.422716|  1.0163e-06|    0.031713|
|       12590|  4.3177e+01|  4.3177e+01|  -10.403879|  1.0122e-06|    0.031712|
|       12600|  4.3177e+01|  4.3177e+01|  -10.379129|  1.0081e-06|    0.031711|
+-----------------------------------------------------------------------+
|        File Writing Summary       |              Filename             |
+-----------------------------------------------------------------------+
|SU2 binary restart                 |restart_flow_G9.dat                |
|Paraview                           |flow_G9.vtu                        |
|Paraview surface                   |surface_flow_G9.vtu                |
+-----------------------------------------------------------------------+
+-----------------------------------------------------------------------------+
|  Inner_Iter|     Min CFL|     Max CFL|      rms[P]|  Cauchy[CD]|          CD|
+-----------------------------------------------------------------------------+
|       12610|  4.3177e+01|  4.3177e+01|  -10.347742|  1.0041e-06|    0.031711|
|       12620|  4.3177e+01|  4.3177e+01|  -10.309337|  1.0002e-06|    0.031710|
|       12621|  4.3177e+01|  4.3177e+01|  -10.305109|  9.9977e-07|    0.031709|

----------------------------- Solver Exit -------------------------------
All convergence criteria satisfied.
+-----------------------------------------------------------------------+
|      Convergence Field     |     Value    |   Criterion  |  Converged |
+-----------------------------------------------------------------------+
|                      rms[P]|      -10.3051|          < -9|         Yes|
|                  Cauchy[CD]|   9.99772e-07|       < 1e-06|         Yes|
+-----------------------------------------------------------------------+
-------------------------------------------------------------------------
+-----------------------------------------------------------------------+
|        File Writing Summary       |              Filename             |
+-----------------------------------------------------------------------+
|SU2 binary restart                 |restart_flow_G9.dat                |
|Paraview                           |flow_G9.vtu                        |
|Paraview surface                   |surface_flow_G9.vtu                |
+-----------------------------------------------------------------------+

------------------------- Solver Postprocessing -------------------------
Deleted CNumerics container.
Deleted CIntegration container.
Deleted CSolver container.
Deleted CIteration container.
Deleted CInterface container.
Deleted CGeometry container.
Deleted CFreeFormDefBox class.
Deleted CSurfaceMovement class.
Deleted CVolumetricMovement class.
Deleted CConfig container.
Deleted nInst container.
Deleted COutput class.
-------------------------------------------------------------------------

------------------------- Exit Success (SU2_CFD) ------------------------

