
-------------------------------------------------------------------------
|    ___ _   _ ___                                                      |
|   / __| | | |_  )   Release 7.4.0 "Blackbird"                         |
|   \__ \ |_| |/ /                                                      |
|   |___/\___//___|   Suite (Computational Fluid Dynamics Code)         |
|                                                                       |
-------------------------------------------------------------------------
| SU2 Project Website: https://su2code.github.io                        |
|                                                                       |
| The SU2 Project is maintained by the SU2 Foundation                   |
| (http://su2foundation.org)                                            |
-------------------------------------------------------------------------
| Copyright 2012-2022, SU2 Contributors                                 |
|                                                                       |
| SU2 is free software; you can redistribute it and/or                  |
| modify it under the terms of the GNU Lesser General Public            |
| License as published by the Free Software Foundation; either          |
| version 2.1 of the License, or (at your option) any later version.    |
|                                                                       |
| SU2 is distributed in the hope that it will be useful,                |
| but WITHOUT ANY WARRANTY; without even the implied warranty of        |
| MERCHANTABILITY or FITNESS FOR A PARTICULAR PURPOSE. See the GNU      |
| Lesser General Public License for more details.                       |
|                                                                       |
| You should have received a copy of the GNU Lesser General Public      |
| License along with SU2. If not, see <http://www.gnu.org/licenses/>.   |
-------------------------------------------------------------------------

Parsing config file for zone 0

----------------- Physical Case Definition ( Zone 0 ) -------------------
Incompressible RANS equations.
Turbulence model: Spalart-Allmaras-noft2
Hybrid RANS/LES: No Hybrid RANS/LES
Reading and writing binary SU2 native restart files.
Read flow solution from: ../../../O1/caseG5/cfdG5/restart_flow_G5.dat.
Non-Dimensional simulation using intialization values.
The reference area is 1 m^2.
The semi-span will be computed using the max y(3D) value.
The reference length is 1.00898 m.
Reference origin for moment evaluation is (-0.756, 0, 0).
Surface(s) where the force coefficients are evaluated: AIRFOIL.

Surface(s) plotted in the output file: AIRFOIL.
Input mesh file name: ../meshG5/meshG5.su2

--------------- Space Numerical Integration ( Zone 0 ) ------------------
Flux difference splitting (FDS) upwind scheme for the flow inviscid terms.
Second order integration in space, with slope limiter.
Venkatakrishnan slope-limiting method, with constant: 0.0466.
The reference element size is: 1. 
Average of gradients with correction (viscous flow terms).
Average of gradients with correction (viscous turbulence terms).
Gradient for upwind reconstruction: unweighted Least-Squares.
Gradient for viscous and source terms: Green-Gauss.

--------------- Time Numerical Integration  ( Zone 0 ) ------------------
Local time stepping (steady state simulation).
Euler implicit method for the flow equations.
FGMRES is used for solving the linear system.
Using a ILU(0) preconditioning.
Convergence criteria of the linear solver: 1e-06.
Max number of linear iterations: 10.
CFL adaptation. Factor down: 0.1, factor up: 1.2,
                lower limit: 1, upper limit: 1000,
                acceptable linear residual: 0.001.
Courant-Friedrichs-Lewy number:        2
Euler implicit time integration for the turbulence model.

------------------ Convergence Criteria  ( Zone 0 ) ---------------------
Maximum number of solver subiterations: 9999.
Begin convergence monitoring at iteration 10.
Residual minimum value: 1e-9.
Cauchy series min. value: 1e-06.
Number of Cauchy elements: 250.
Begin windowed time average at iteration 0.

-------------------- Output Information ( Zone 0 ) ----------------------
File writing frequency: 
+------------------------------------+
|                     File| Frequency|
+------------------------------------+
|                  RESTART|       200|
|                 PARAVIEW|       200|
|         SURFACE_PARAVIEW|       200|
+------------------------------------+
Writing the convergence history file every 1 inner iterations.
Writing the screen convergence history every 10 inner iterations.
The tabular file format is CSV (.csv).
Convergence history file name: history_G5.
Forces breakdown file name: forces_breakdown.dat.
Surface file name: surface_flow_G5.
Volume file name: flow_G5.
Restart file name: restart_flow_G5.dat.

------------- Config File Boundary Information ( Zone 0 ) ---------------
+-----------------------------------------------------------------------+
|                        Marker Type|                        Marker Name|
+-----------------------------------------------------------------------+
|                          Far-field|                           FARFIELD|
+-----------------------------------------------------------------------+
|                     Heat flux wall|                            AIRFOIL|
+-----------------------------------------------------------------------+

-------------------- Output Preprocessing ( Zone 0 ) --------------------

WARNING: SURFACE_PRESSURE_DROP can only be computed for at least 2 surfaces (outlet, inlet, ...)

Screen output fields: INNER_ITER, MIN_CFL, MAX_CFL, RMS_PRESSURE, CAUCHY_DRAG, DRAG
History output group(s): INNER_ITER, MIN_CFL, MAX_CFL, RMS_RES, LIFT, DRAG, MOMENT_Z, CAUCHY
Convergence field(s): RMS_PRESSURE, DRAG
Warning: No (valid) fields chosen for time convergence monitoring. Time convergence monitoring inactive.
Volume output fields: COORDINATES, SOLUTION, PRIMITIVE, RESIDUAL, MESH_QUALITY

------------------- Geometry Preprocessing ( Zone 0 ) -------------------
Two dimensional problem.
361479 grid points before partitioning.
360180 volume elements before partitioning.
2 surface markers.
724 boundary elements in index 0 (Marker = AIRFOIL).
1874 boundary elements in index 1 (Marker = FARFIELD).
Executing the partitioning functions.
Building the graph adjacency structure.
Calling ParMETIS... graph partitioning complete (4050 edge cuts).
Distributing ParMETIS coloring.
Rebalancing vertices.
Rebalancing volume element connectivity.
Rebalancing markers and surface elements.
369602 vertices including ghost points. 
364230 interior elements including halo cells. 
364230 quadrilaterals.
Establishing MPI communication patterns.
Setting point connectivity.
Renumbering points (Reverse Cuthill McKee Ordering).
Recomputing point connectivity.
Setting element connectivity.
Checking the numerical grid orientation.
All volume elements are correctly orientend.
There has been a re-orientation of 1305 LINE surface elements.
Identifying edges and vertices.
Setting the control volume structure.
Area of the computational grid: 103207.
Searching for the closest normal neighbors to the surfaces.
Storing a mapping from global to local point index.
Compute the surface curvature.
Max K: 227502. Mean K: 205.598. Standard deviation K: 4719.73.
Checking for periodicity.
Computing mesh quality statistics for the dual control volumes.
+--------------------------------------------------------------+
|           Mesh Quality Metric|        Minimum|        Maximum|
+--------------------------------------------------------------+
|    Orthogonality Angle (deg.)|        75.9136|             90|
|     CV Face Area Aspect Ratio|        1.00002|    3.17894e+06|
|           CV Sub-Volume Ratio|              1|         387.07|
+--------------------------------------------------------------+
Finding max control volume width.
Communicating number of neighbors.
Wetted area = 2.0597 m.
Area projection in the x-plane = 0.121116 m, y-plane = 1.00881 m.
Max. coordinate in the x-direction = 1.00898 m, y-direction = 0.0759837 m.
Min. coordinate in the x-direction = 4.86614e-06 m, y-direction = -0.0451345 m.
Computing wall distances.

-------------------- Solver Preprocessing ( Zone 0 ) --------------------
 Warning: There is no restart file (flow.meta).
 Computation will continue without updating metadata parameters.
Incompressible flow: rho_ref, vel_ref, and temp_ref
are based on the initial values, p_ref = rho_ref*vel_ref^2.
Force coefficients computed using initial values.
The reference area for force coeffs. is 1 m^2.
The reference length for force coeffs. is 1.00898 m.
The pressure is decomposed into thermodynamic and dynamic components.
The initial value of the dynamic pressure is 0.
Mach number: 0.0276747, computed using the Bulk modulus.
For external flows, the initial state is imposed at the far-field.
Angle of attack (deg): 14, computed using the initial velocity.
Side slip angle (deg): 0, computed using the initial velocity.
Reynolds number per meter: 594999, computed using initial values.
Reynolds number is a byproduct of inputs only (not used internally).
SI units only. The grid should be dimensional (meters).
No energy equation.

-- Models:
+------------------------------------------------------------------------------+
|          Viscosity Model|        Conductivity Model|              Fluid Model|
+------------------------------------------------------------------------------+
|       CONSTANT_VISCOSITY|          CONSTANT_PRANDTL|         CONSTANT_DENSITY|
+------------------------------------------------------------------------------+
-- Fluid properties:
+------------------------------------------------------------------------------+
|                  Name|    Dim. value|    Ref. value|      Unit|Non-dim. value|
+------------------------------------------------------------------------------+
|             Viscosity|      1.92e-05|        11.424|   N.s/m^2|   1.68067e-06|
+------------------------------------------------------------------------------+
|        Prandtl (Lam.)|             -|             -|         -|          0.72|
|       Prandtl (Turb.)|             -|             -|         -|           0.9|
+------------------------------------------------------------------------------+
|          Bulk Modulus|        142000|             1|        Pa|        142000|
+------------------------------------------------------------------------------+
-- Initial and free-stream conditions:
+------------------------------------------------------------------------------+
|                  Name|    Dim. value|    Ref. value|      Unit|Non-dim. value|
+------------------------------------------------------------------------------+
|      Dynamic Pressure|             0|       108.756|        Pa|             0|
|        Total Pressure|       54.3781|       108.756|        Pa|           0.5|
|               Density|           1.2|           1.2|    kg/m^3|             1|
|            Velocity-X|        9.2372|       9.51999|       m/s|      0.970296|
|            Velocity-Y|        2.3031|       9.51999|       m/s|      0.241923|
|    Velocity Magnitude|       9.51999|       9.51999|       m/s|             1|
+------------------------------------------------------------------------------+
|             Viscosity|      1.92e-05|        11.424|   N.s/m^2|   1.68067e-06|
|          Conductivity|             -|       3.59312|   W/m^2.K|             -|
|     Turb. Kin. Energy|       1.35945|       90.6301|   m^2/s^2|         0.015|
|     Spec. Dissipation|       8496.58|       9.51999|       1/s|       892.499|
+------------------------------------------------------------------------------+
|           Mach Number|             -|             -|         -|     0.0276747|
|       Reynolds Number|             -|             -|         -|        594999|
+------------------------------------------------------------------------------+
Initialize Jacobian structure (Navier-Stokes). MG level: 0.
Initialize Jacobian structure (SA model).

------------------- Numerics Preprocessing ( Zone 0 ) -------------------

----------------- Integration Preprocessing ( Zone 0 ) ------------------

------------------- Iteration Preprocessing ( Zone 0 ) ------------------
Euler/Navier-Stokes/RANS fluid iteration.

------------------------------ Begin Solver -----------------------------

Simulation Run using the Single-zone Driver
+-----------------------------------------------------------------------------+
|  Inner_Iter|     Min CFL|     Max CFL|      rms[P]|  Cauchy[CD]|          CD|
+-----------------------------------------------------------------------------+
|           0|  2.4000e+00|  2.4000e+00|   -6.428115|  1.0000e+00|    0.105403|
|          10|  1.4860e+01|  1.4860e+01|   -6.414164|  8.7750e-05|    0.103119|
|          20|  5.3247e+01|  5.3247e+01|   -6.779982|  1.5977e-03|    0.065340|
|          30|  1.5899e+01|  1.5899e+01|   -6.850796|  1.8768e-03|    0.058557|
|          40|  8.2037e+00|  8.2037e+00|   -6.755540|  2.0010e-03|    0.061661|
|          50|  5.0795e+01|  5.0795e+01|   -6.801235|  2.0307e-03|    0.062404|
|          60|  2.6209e+01|  2.6209e+01|   -6.870746|  2.0402e-03|    0.062543|
|          70|  1.3523e+01|  1.3523e+01|   -6.824164|  2.0966e-03|    0.061134|
|          80|  6.9778e+01|  6.9778e+01|   -6.863312|  2.1446e-03|    0.059933|
|          90|  1.0048e+01|  1.0048e+01|   -6.932858|  2.2369e-03|    0.062239|
|         100|  6.2215e+01|  6.2215e+01|   -7.029142|  2.2500e-03|    0.062460|
|         110|  3.2101e+01|  3.2101e+01|   -7.104324|  2.2839e-03|    0.061612|
|         120|  1.6564e+01|  1.6564e+01|   -7.125878|  2.3514e-03|    0.059925|
|         130|  8.5465e+00|  8.5465e+00|   -7.089048|  2.4161e-03|    0.058307|
|         140|  5.2917e+01|  5.2917e+01|   -7.125969|  2.4511e-03|    0.057433|
|         150|  2.2754e+01|  2.2754e+01|   -7.131370|  2.4655e-03|    0.057071|
|         160|  1.1740e+01|  1.1740e+01|   -7.168934|  2.4739e-03|    0.057192|
|         170|  5.0481e+01|  5.0481e+01|   -7.166599|  2.5071e-03|    0.058023|
|         180|  6.0577e+00|  6.0577e+00|   -7.155806|  2.5565e-03|    0.059259|
|         190|  3.7508e+01|  3.7508e+01|   -7.151591|  2.5598e-03|    0.059272|
|         200|  1.9353e+01|  1.9353e+01|   -7.150789|  2.5776e-03|    0.058828|
+-----------------------------------------------------------------------+
|        File Writing Summary       |              Filename             |
+-----------------------------------------------------------------------+
|SU2 binary restart                 |restart_flow_G5.dat                |
|Paraview                           |flow_G5.vtu                        |
|Paraview surface                   |surface_flow_G5.vtu                |
+-----------------------------------------------------------------------+
+-----------------------------------------------------------------------------+
|  Inner_Iter|     Min CFL|     Max CFL|      rms[P]|  Cauchy[CD]|          CD|
+-----------------------------------------------------------------------------+
|         210|  4.8157e+01|  4.8157e+01|   -7.205573|  2.6429e-03|    0.057195|
|         220|  1.1983e+01|  1.1983e+01|   -7.250040|  2.6829e-03|    0.056194|
|         230|  5.1525e+01|  5.1525e+01|   -7.231039|  2.6926e-03|    0.056202|
|         240|  5.1525e+01|  5.1525e+01|   -7.250247|  2.7270e-03|    0.057059|
|         250|  5.1525e+01|  5.1525e+01|   -7.256954|  2.7441e-03|    0.056760|
|         260|  5.1525e+01|  5.1525e+01|   -7.284974|  2.6918e-03|    0.055873|
|         270|  5.1525e+01|  5.1525e+01|   -7.260737|  1.2059e-03|    0.055273|
|         280|  5.1525e+01|  5.1525e+01|   -7.296503|  9.5505e-04|    0.054566|
|         290|  5.1525e+01|  5.1525e+01|   -7.373175|  8.6232e-04|    0.053780|
|         300|  1.5385e+01|  1.5385e+01|   -7.384248|  8.4455e-04|    0.053482|
|         310|  7.9384e+00|  7.9384e+00|   -7.338080|  8.3956e-04|    0.053369|
|         320|  4.9153e+01|  4.9153e+01|   -7.343229|  7.8464e-04|    0.053332|
|         330|  2.5362e+01|  2.5362e+01|   -7.336954|  7.3853e-04|    0.053284|
|         340|  5.2590e+01|  5.2590e+01|   -7.363313|  6.6077e-04|    0.052922|
|         350|  2.7135e+01|  2.7135e+01|   -7.401053|  6.5679e-04|    0.052693|
|         360|  1.4001e+01|  1.4001e+01|   -7.441658|  6.3947e-04|    0.052278|
|         370|  5.0169e+01|  5.0169e+01|   -7.427696|  5.9492e-04|    0.051705|
|         380|  5.0169e+01|  5.0169e+01|   -7.371489|  5.5439e-04|    0.051100|
|         390|  5.0169e+01|  5.0169e+01|   -7.447663|  5.2945e-04|    0.050850|
|         400|  8.6692e+00|  8.6692e+00|   -7.500412|  5.2290e-04|    0.050651|
+-----------------------------------------------------------------------+
|        File Writing Summary       |              Filename             |
+-----------------------------------------------------------------------+
|SU2 binary restart                 |restart_flow_G5.dat                |
|Paraview                           |flow_G5.vtu                        |
|Paraview surface                   |surface_flow_G5.vtu                |
+-----------------------------------------------------------------------+
+-----------------------------------------------------------------------------+
|  Inner_Iter|     Min CFL|     Max CFL|      rms[P]|  Cauchy[CD]|          CD|
+-----------------------------------------------------------------------------+
|         410|  5.3677e+01|  5.3677e+01|   -7.503346|  5.2132e-04|    0.050483|
|         420|  2.7696e+01|  2.7696e+01|   -7.477975|  4.9397e-04|    0.050336|
|         430|  1.4291e+01|  1.4291e+01|   -7.454978|  4.5422e-04|    0.050094|
|         440|  7.3737e+00|  7.3737e+00|   -7.452357|  4.6247e-04|    0.049806|
|         450|  4.5656e+01|  4.5656e+01|   -7.477811|  4.5127e-04|    0.049641|
|         460|  2.3557e+01|  2.3557e+01|   -7.515300|  3.9213e-04|    0.049487|
|         470|  1.2155e+01|  1.2155e+01|   -7.546091|  3.6013e-04|    0.049286|
|         480|  5.2265e+01|  5.2265e+01|   -7.530444|  3.5948e-04|    0.049059|
|         490|  5.2265e+01|  5.2265e+01|   -7.487347|  3.3844e-04|    0.048728|
|         500|  5.2265e+01|  5.2265e+01|   -7.542132|  3.2758e-04|    0.048571|
|         510|  2.6968e+01|  2.6968e+01|   -7.604934|  2.9300e-04|    0.048548|
|         520|  1.3915e+01|  1.3915e+01|   -7.642149|  2.7029e-04|    0.048516|
|         530|  7.1797e+00|  7.1797e+00|   -7.612603|  2.4507e-04|    0.048439|
|         540|  4.4455e+01|  4.4455e+01|   -7.605136|  2.1674e-04|    0.048361|
|         550|  1.9115e+01|  1.9115e+01|   -7.577626|  2.1106e-04|    0.048205|
|         560|  9.8627e+00|  9.8627e+00|   -7.539020|  2.1305e-04|    0.048042|
|         570|  6.1067e+01|  6.1067e+01|   -7.576908|  2.1697e-04|    0.047908|
|         580|  3.1509e+01|  3.1509e+01|   -7.606782|  2.1801e-04|    0.047834|
|         590|  1.6258e+01|  1.6258e+01|   -7.611630|  2.0646e-04|    0.047760|
|         600|  5.8256e+01|  5.8256e+01|   -7.546028|  1.9960e-04|    0.047703|
+-----------------------------------------------------------------------+
|        File Writing Summary       |              Filename             |
+-----------------------------------------------------------------------+
|SU2 binary restart                 |restart_flow_G5.dat                |
|Paraview                           |flow_G5.vtu                        |
|Paraview surface                   |surface_flow_G5.vtu                |
+-----------------------------------------------------------------------+
+-----------------------------------------------------------------------------+
|  Inner_Iter|     Min CFL|     Max CFL|      rms[P]|  Cauchy[CD]|          CD|
+-----------------------------------------------------------------------------+
|         610|  6.9907e+01|  6.9907e+01|   -7.561104|  1.8564e-04|    0.047637|
|         620|  3.6071e+01|  3.6071e+01|   -7.646094|  1.6340e-04|    0.047620|
|         630|  1.8612e+01|  1.8612e+01|   -7.714102|  1.3981e-04|    0.047605|
|         640|  9.6032e+00|  9.6032e+00|   -7.593592|  1.3010e-04|    0.047597|
|         650|  5.9460e+01|  5.9460e+01|   -7.657982|  1.2252e-04|    0.047588|
|         660|  5.9460e+01|  5.9460e+01|   -7.664252|  1.1914e-04|    0.047505|
|         670|  5.9460e+01|  5.9460e+01|   -7.685845|  1.1776e-04|    0.047392|
|         680|  1.2330e+01|  1.2330e+01|   -7.616858|  1.0980e-04|    0.047349|
|         690|  6.3619e+00|  6.3619e+00|   -7.661805|  9.8386e-05|    0.047347|
|         700|  3.9391e+01|  3.9391e+01|   -7.709740|  9.2033e-05|    0.047353|
|         710|  2.0325e+01|  2.0325e+01|   -7.767343|  8.6631e-05|    0.047372|
|         720|  6.0690e+01|  6.0690e+01|   -7.732609|  8.0415e-05|    0.047418|
|         730|  6.0690e+01|  6.0690e+01|   -7.706463|  7.4007e-05|    0.047484|
|         740|  6.0690e+01|  6.0690e+01|   -7.733782|  6.2108e-05|    0.047518|
|         750|  1.8122e+01|  1.8122e+01|   -7.837713|  5.5916e-05|    0.047520|
|         760|  9.3505e+00|  9.3505e+00|   -7.735736|  5.5165e-05|    0.047517|
|         770|  5.7896e+01|  5.7896e+01|   -7.807253|  5.4032e-05|    0.047516|
|         780|  2.4894e+01|  2.4894e+01|   -7.821257|  5.1126e-05|    0.047520|
|         790|  1.2845e+01|  1.2845e+01|   -7.824122|  4.8784e-05|    0.047540|
|         800|  5.5230e+01|  5.5230e+01|   -7.826356|  4.4027e-05|    0.047577|
+-----------------------------------------------------------------------+
|        File Writing Summary       |              Filename             |
+-----------------------------------------------------------------------+
|SU2 binary restart                 |restart_flow_G5.dat                |
|Paraview                           |flow_G5.vtu                        |
|Paraview surface                   |surface_flow_G5.vtu                |
+-----------------------------------------------------------------------+
+-----------------------------------------------------------------------------+
|  Inner_Iter|     Min CFL|     Max CFL|      rms[P]|  Cauchy[CD]|          CD|
+-----------------------------------------------------------------------------+
|         810|  5.5230e+01|  5.5230e+01|   -7.838849|  4.1210e-05|    0.047669|
|         820|  5.5230e+01|  5.5230e+01|   -7.844402|  3.9469e-05|    0.047760|
|         830|  5.5230e+01|  5.5230e+01|   -7.868923|  3.9057e-05|    0.047824|
|         840|  5.5230e+01|  5.5230e+01|   -7.858043|  3.7723e-05|    0.047864|
|         850|  5.5230e+01|  5.5230e+01|   -7.834849|  3.7161e-05|    0.047907|
|         860|  5.5230e+01|  5.5230e+01|   -7.835461|  3.7168e-05|    0.047973|
|         870|  5.5230e+01|  5.5230e+01|   -7.826964|  3.9924e-05|    0.048059|
|         880|  5.5230e+01|  5.5230e+01|   -7.823982|  4.2824e-05|    0.048147|
|         890|  5.5230e+01|  5.5230e+01|   -7.824508|  4.5397e-05|    0.048219|
|         900|  5.5230e+01|  5.5230e+01|   -7.810485|  4.7308e-05|    0.048276|
|         910|  5.5230e+01|  5.5230e+01|   -7.805859|  4.6149e-05|    0.048330|
|         920|  5.5230e+01|  5.5230e+01|   -7.807768|  4.4126e-05|    0.048392|
|         930|  5.5230e+01|  5.5230e+01|   -7.808231|  4.5137e-05|    0.048461|
|         940|  1.9790e+01|  1.9790e+01|   -7.857155|  4.6496e-05|    0.048497|
|         950|  1.0211e+01|  1.0211e+01|   -7.791676|  4.7746e-05|    0.048535|
|         960|  6.3225e+01|  6.3225e+01|   -7.831676|  4.8218e-05|    0.048565|
|         970|  3.2623e+01|  3.2623e+01|   -7.844611|  4.7145e-05|    0.048584|
|         980|  5.6372e+01|  5.6372e+01|   -7.801820|  4.6464e-05|    0.048634|
|         990|  5.6372e+01|  5.6372e+01|   -7.798756|  4.6934e-05|    0.048680|
|        1000|  5.6372e+01|  5.6372e+01|   -7.804517|  4.8468e-05|    0.048720|
+-----------------------------------------------------------------------+
|        File Writing Summary       |              Filename             |
+-----------------------------------------------------------------------+
|SU2 binary restart                 |restart_flow_G5.dat                |
|Paraview                           |flow_G5.vtu                        |
|Paraview surface                   |surface_flow_G5.vtu                |
+-----------------------------------------------------------------------+
+-----------------------------------------------------------------------------+
|  Inner_Iter|     Min CFL|     Max CFL|      rms[P]|  Cauchy[CD]|          CD|
+-----------------------------------------------------------------------------+
|        1010|  5.6372e+01|  5.6372e+01|   -7.813150|  4.9995e-05|    0.048763|
|        1020|  5.6372e+01|  5.6372e+01|   -7.821045|  5.1623e-05|    0.048807|
|        1030|  5.6372e+01|  5.6372e+01|   -7.824495|  5.3050e-05|    0.048847|
|        1040|  5.6372e+01|  5.6372e+01|   -7.832313|  5.3505e-05|    0.048877|
|        1050|  5.6372e+01|  5.6372e+01|   -7.847925|  5.2822e-05|    0.048898|
|        1060|  9.7411e+00|  9.7411e+00|   -7.843178|  4.9547e-05|    0.048908|
|        1070|  6.0314e+01|  6.0314e+01|   -7.885775|  4.6227e-05|    0.048916|
|        1080|  3.1121e+01|  3.1121e+01|   -7.899606|  4.3770e-05|    0.048918|
|        1090|  1.6058e+01|  1.6058e+01|   -7.905151|  4.2360e-05|    0.048923|
|        1100|  5.7538e+01|  5.7538e+01|   -7.907956|  4.0920e-05|    0.048930|
|        1110|  5.7538e+01|  5.7538e+01|   -7.918766|  3.8514e-05|    0.048936|
|        1120|  5.7538e+01|  5.7538e+01|   -7.931476|  3.5254e-05|    0.048932|
|        1130|  5.7538e+01|  5.7538e+01|   -7.942367|  3.2408e-05|    0.048916|
|        1140|  5.7538e+01|  5.7538e+01|   -7.952363|  3.0504e-05|    0.048891|
|        1150|  5.7538e+01|  5.7538e+01|   -7.959925|  2.9383e-05|    0.048862|
|        1160|  5.7538e+01|  5.7538e+01|   -7.963839|  2.8416e-05|    0.048832|
|        1170|  5.7538e+01|  5.7538e+01|   -7.963729|  2.7344e-05|    0.048797|
|        1180|  5.7538e+01|  5.7538e+01|   -7.960872|  2.6473e-05|    0.048750|
|        1190|  5.7538e+01|  5.7538e+01|   -7.958869|  2.7405e-05|    0.048690|
|        1200|  5.7538e+01|  5.7538e+01|   -7.960098|  2.8623e-05|    0.048622|
+-----------------------------------------------------------------------+
|        File Writing Summary       |              Filename             |
+-----------------------------------------------------------------------+
|SU2 binary restart                 |restart_flow_G5.dat                |
|Paraview                           |flow_G5.vtu                        |
|Paraview surface                   |surface_flow_G5.vtu                |
+-----------------------------------------------------------------------+
+-----------------------------------------------------------------------------+
|  Inner_Iter|     Min CFL|     Max CFL|      rms[P]|  Cauchy[CD]|          CD|
+-----------------------------------------------------------------------------+
|        1210|  5.7538e+01|  5.7538e+01|   -7.963672|  3.0220e-05|    0.048552|
|        1220|  5.7538e+01|  5.7538e+01|   -7.967101|  3.2371e-05|    0.048479|
|        1230|  5.7538e+01|  5.7538e+01|   -7.968370|  3.3562e-05|    0.048400|
|        1240|  5.7538e+01|  5.7538e+01|   -7.968320|  3.5273e-05|    0.048311|
|        1250|  5.7538e+01|  5.7538e+01|   -7.968913|  3.7536e-05|    0.048214|
|        1260|  5.7538e+01|  5.7538e+01|   -7.970850|  3.9911e-05|    0.048112|
|        1270|  5.7538e+01|  5.7538e+01|   -7.973367|  4.2311e-05|    0.048008|
|        1280|  5.7538e+01|  5.7538e+01|   -7.975381|  4.4964e-05|    0.047902|
|        1290|  5.7538e+01|  5.7538e+01|   -7.976918|  4.8138e-05|    0.047792|
|        1300|  5.7538e+01|  5.7538e+01|   -7.978579|  5.1913e-05|    0.047677|
|        1310|  6.9045e+01|  6.9045e+01|   -7.980606|  5.6228e-05|    0.047559|
|        1320|  3.5626e+01|  3.5626e+01|   -7.999722|  5.7712e-05|    0.047514|
|        1330|  1.8382e+01|  1.8382e+01|   -8.003477|  5.9602e-05|    0.047464|
|        1340|  9.4848e+00|  9.4848e+00|   -7.974205|  6.2002e-05|    0.047399|
|        1350|  5.8727e+01|  5.8727e+01|   -7.999926|  6.3742e-05|    0.047349|
|        1360|  5.8727e+01|  5.8727e+01|   -7.992013|  6.8423e-05|    0.047226|
|        1370|  5.8727e+01|  5.8727e+01|   -7.995602|  7.3176e-05|    0.047103|
|        1380|  5.8727e+01|  5.8727e+01|   -8.000215|  7.7514e-05|    0.046978|
|        1390|  5.8727e+01|  5.8727e+01|   -8.007027|  8.1403e-05|    0.046856|
|        1400|  7.0473e+00|  7.0473e+00|   -8.015902|  8.5147e-05|    0.046733|
+-----------------------------------------------------------------------+
|        File Writing Summary       |              Filename             |
+-----------------------------------------------------------------------+
|SU2 binary restart                 |restart_flow_G5.dat                |
|Paraview                           |flow_G5.vtu                        |
|Paraview surface                   |surface_flow_G5.vtu                |
+-----------------------------------------------------------------------+
+-----------------------------------------------------------------------------+
|  Inner_Iter|     Min CFL|     Max CFL|      rms[P]|  Cauchy[CD]|          CD|
+-----------------------------------------------------------------------------+
|        1410|  4.3635e+01|  4.3635e+01|   -8.030573|  8.5405e-05|    0.046697|
|        1420|  2.2515e+01|  2.2515e+01|   -8.033741|  8.5850e-05|    0.046650|
|        1430|  1.1617e+01|  1.1617e+01|   -8.024973|  8.6444e-05|    0.046589|
|        1440|  5.9941e+01|  5.9941e+01|   -8.047592|  8.6376e-05|    0.046531|
|        1450|  5.9941e+01|  5.9941e+01|   -8.055793|  8.8413e-05|    0.046412|
|        1460|  5.9941e+01|  5.9941e+01|   -8.075775|  9.0364e-05|    0.046293|
|        1470|  5.9941e+01|  5.9941e+01|   -8.098808|  9.2103e-05|    0.046176|
|        1480|  5.9941e+01|  5.9941e+01|   -8.126222|  9.3320e-05|    0.046067|
|        1490|  5.9941e+01|  5.9941e+01|   -8.156199|  9.4076e-05|    0.045959|
|        1500|  5.9941e+01|  5.9941e+01|   -8.188634|  9.4452e-05|    0.045853|
|        1510|  5.9941e+01|  5.9941e+01|   -8.221423|  9.4572e-05|    0.045748|
|        1520|  5.9941e+01|  5.9941e+01|   -8.253232|  9.4600e-05|    0.045643|
|        1530|  5.9941e+01|  5.9941e+01|   -8.282197|  9.4490e-05|    0.045540|
|        1540|  5.9941e+01|  5.9941e+01|   -8.306221|  9.4113e-05|    0.045439|
|        1550|  5.9941e+01|  5.9941e+01|   -8.323569|  9.3489e-05|    0.045340|
|        1560|  5.9941e+01|  5.9941e+01|   -8.333061|  9.2728e-05|    0.045241|
|        1570|  2.1478e+01|  2.1478e+01|   -8.394856|  9.2633e-05|    0.045198|
|        1580|  1.1082e+01|  1.1082e+01|   -8.314214|  9.2575e-05|    0.045150|
|        1590|  5.7182e+01|  5.7182e+01|   -8.361227|  9.1828e-05|    0.045104|
|        1600|  5.7182e+01|  5.7182e+01|   -8.342005|  9.3554e-05|    0.045010|
+-----------------------------------------------------------------------+
|        File Writing Summary       |              Filename             |
+-----------------------------------------------------------------------+
|SU2 binary restart                 |restart_flow_G5.dat                |
|Paraview                           |flow_G5.vtu                        |
|Paraview surface                   |surface_flow_G5.vtu                |
+-----------------------------------------------------------------------+
+-----------------------------------------------------------------------------+
|  Inner_Iter|     Min CFL|     Max CFL|      rms[P]|  Cauchy[CD]|          CD|
+-----------------------------------------------------------------------------+
|        1610|  5.7182e+01|  5.7182e+01|   -8.331611|  9.2370e-05|    0.044917|
|        1620|  5.7182e+01|  5.7182e+01|   -8.317222|  9.1227e-05|    0.044822|
|        1630|  5.7182e+01|  5.7182e+01|   -8.303164|  8.9963e-05|    0.044729|
|        1640|  5.7182e+01|  5.7182e+01|   -8.289231|  8.8803e-05|    0.044636|
|        1650|  5.7182e+01|  5.7182e+01|   -8.277117|  8.7638e-05|    0.044542|
|        1660|  5.7182e+01|  5.7182e+01|   -8.266377|  8.9862e-05|    0.044450|
|        1670|  5.7182e+01|  5.7182e+01|   -8.257946|  9.1703e-05|    0.044358|
|        1680|  5.7182e+01|  5.7182e+01|   -8.251889|  9.2971e-05|    0.044265|
|        1690|  5.7182e+01|  5.7182e+01|   -8.248008|  9.4359e-05|    0.044172|
|        1700|  5.7182e+01|  5.7182e+01|   -8.246316|  9.3282e-05|    0.044080|
|        1710|  5.7182e+01|  5.7182e+01|   -8.247262|  9.2158e-05|    0.043989|
|        1720|  5.7182e+01|  5.7182e+01|   -8.250703|  9.1122e-05|    0.043898|
|        1730|  5.7182e+01|  5.7182e+01|   -8.256521|  9.0328e-05|    0.043808|
|        1740|  5.7182e+01|  5.7182e+01|   -8.265259|  8.9595e-05|    0.043719|
|        1750|  5.7182e+01|  5.7182e+01|   -8.277134|  8.8860e-05|    0.043631|
|        1760|  8.2342e+00|  8.2342e+00|   -8.271887|  8.7510e-05|    0.043560|
|        1770|  5.0984e+01|  5.0984e+01|   -8.311136|  8.4584e-05|    0.043528|
|        1780|  2.6307e+01|  2.6307e+01|   -8.317952|  8.1733e-05|    0.043496|
|        1790|  5.4549e+01|  5.4549e+01|   -8.318852|  8.0462e-05|    0.043427|
|        1800|  5.4549e+01|  5.4549e+01|   -8.340492|  7.9675e-05|    0.043348|
+-----------------------------------------------------------------------+
|        File Writing Summary       |              Filename             |
+-----------------------------------------------------------------------+
|SU2 binary restart                 |restart_flow_G5.dat                |
|Paraview                           |flow_G5.vtu                        |
|Paraview surface                   |surface_flow_G5.vtu                |
+-----------------------------------------------------------------------+
+-----------------------------------------------------------------------------+
|  Inner_Iter|     Min CFL|     Max CFL|      rms[P]|  Cauchy[CD]|          CD|
+-----------------------------------------------------------------------------+
|        1810|  5.4549e+01|  5.4549e+01|   -8.360889|  7.8885e-05|    0.043269|
|        1820|  5.4549e+01|  5.4549e+01|   -8.383934|  8.0328e-05|    0.043190|
|        1830|  5.4549e+01|  5.4549e+01|   -8.409265|  8.1467e-05|    0.043113|
|        1840|  5.4549e+01|  5.4549e+01|   -8.435349|  8.2606e-05|    0.043038|
|        1850|  1.9546e+01|  1.9546e+01|   -8.469156|  8.0133e-05|    0.043006|
|        1860|  1.0085e+01|  1.0085e+01|   -8.451040|  7.7883e-05|    0.042970|
|        1870|  5.2038e+01|  5.2038e+01|   -8.487630|  7.5489e-05|    0.042935|
|        1880|  5.2038e+01|  5.2038e+01|   -8.500432|  7.4507e-05|    0.042866|
|        1890|  5.2038e+01|  5.2038e+01|   -8.522134|  7.3538e-05|    0.042797|
|        1900|  5.2038e+01|  5.2038e+01|   -8.534700|  7.2586e-05|    0.042728|
|        1910|  5.2038e+01|  5.2038e+01|   -8.546273|  7.1628e-05|    0.042659|
|        1920|  5.2038e+01|  5.2038e+01|   -8.550814|  7.0604e-05|    0.042593|
|        1930|  5.2038e+01|  5.2038e+01|   -8.551949|  6.9511e-05|    0.042527|
|        1940|  5.2038e+01|  5.2038e+01|   -8.549566|  6.8422e-05|    0.042461|
|        1950|  5.2038e+01|  5.2038e+01|   -8.545047|  6.7362e-05|    0.042396|
|        1960|  5.2038e+01|  5.2038e+01|   -8.538980|  6.6335e-05|    0.042330|
|        1970|  5.2038e+01|  5.2038e+01|   -8.532625|  6.5330e-05|    0.042265|
|        1980|  5.2038e+01|  5.2038e+01|   -8.527424|  6.4323e-05|    0.042200|
|        1990|  5.2038e+01|  5.2038e+01|   -8.523719|  6.3324e-05|    0.042136|
|        2000|  5.2038e+01|  5.2038e+01|   -8.521267|  6.2356e-05|    0.042072|
+-----------------------------------------------------------------------+
|        File Writing Summary       |              Filename             |
+-----------------------------------------------------------------------+
|SU2 binary restart                 |restart_flow_G5.dat                |
|Paraview                           |flow_G5.vtu                        |
|Paraview surface                   |surface_flow_G5.vtu                |
+-----------------------------------------------------------------------+
+-----------------------------------------------------------------------------+
|  Inner_Iter|     Min CFL|     Max CFL|      rms[P]|  Cauchy[CD]|          CD|
+-----------------------------------------------------------------------------+
|        2010|  5.2038e+01|  5.2038e+01|   -8.519857|  6.2047e-05|    0.042009|
|        2020|  1.2949e+01|  1.2949e+01|   -8.535381|  6.2244e-05|    0.041972|
|        2030|  6.6813e+00|  6.6813e+00|   -8.523605|  6.2299e-05|    0.041939|
|        2040|  4.1369e+01|  4.1369e+01|   -8.539423|  6.0395e-05|    0.041918|
|        2050|  4.9642e+01|  4.9642e+01|   -8.527304|  5.9543e-05|    0.041859|
|        2060|  4.9642e+01|  4.9642e+01|   -8.531762|  5.8731e-05|    0.041800|
|        2070|  4.9642e+01|  4.9642e+01|   -8.534573|  5.7954e-05|    0.041741|
|        2080|  4.9642e+01|  4.9642e+01|   -8.538802|  5.7278e-05|    0.041681|
|        2090|  4.9642e+01|  4.9642e+01|   -8.545754|  5.6629e-05|    0.041623|
|        2100|  4.9642e+01|  4.9642e+01|   -8.552760|  5.7661e-05|    0.041565|
|        2110|  4.9642e+01|  4.9642e+01|   -8.560281|  5.8494e-05|    0.041507|
|        2120|  4.9642e+01|  4.9642e+01|   -8.567448|  5.9373e-05|    0.041450|
|        2130|  4.9642e+01|  4.9642e+01|   -8.575300|  5.8868e-05|    0.041394|
|        2140|  4.9642e+01|  4.9642e+01|   -8.583397|  5.8373e-05|    0.041338|
|        2150|  1.2353e+01|  1.2353e+01|   -8.609268|  5.6890e-05|    0.041306|
|        2160|  6.3737e+00|  6.3737e+00|   -8.596235|  5.5343e-05|    0.041276|
|        2170|  3.9464e+01|  3.9464e+01|   -8.615738|  5.3425e-05|    0.041257|
|        2180|  4.7357e+01|  4.7357e+01|   -8.606118|  5.2833e-05|    0.041206|
|        2190|  4.7357e+01|  4.7357e+01|   -8.614939|  5.2287e-05|    0.041154|
|        2200|  4.7357e+01|  4.7357e+01|   -8.619268|  5.1760e-05|    0.041102|
+-----------------------------------------------------------------------+
|        File Writing Summary       |              Filename             |
+-----------------------------------------------------------------------+
|SU2 binary restart                 |restart_flow_G5.dat                |
|Paraview                           |flow_G5.vtu                        |
|Paraview surface                   |surface_flow_G5.vtu                |
+-----------------------------------------------------------------------+
+-----------------------------------------------------------------------------+
|  Inner_Iter|     Min CFL|     Max CFL|      rms[P]|  Cauchy[CD]|          CD|
+-----------------------------------------------------------------------------+
|        2210|  4.7357e+01|  4.7357e+01|   -8.623982|  5.1241e-05|    0.041049|
|        2220|  4.7357e+01|  4.7357e+01|   -8.629619|  5.0709e-05|    0.040997|
|        2230|  4.7357e+01|  4.7357e+01|   -8.633306|  5.0183e-05|    0.040946|
|        2240|  4.7357e+01|  4.7357e+01|   -8.636927|  4.9669e-05|    0.040894|
|        2250|  4.7357e+01|  4.7357e+01|   -8.639170|  4.9159e-05|    0.040843|
|        2260|  4.7357e+01|  4.7357e+01|   -8.640820|  4.8643e-05|    0.040793|
|        2270|  4.7357e+01|  4.7357e+01|   -8.641794|  4.9218e-05|    0.040742|
|        2280|  4.7357e+01|  4.7357e+01|   -8.642540|  4.9933e-05|    0.040690|
|        2290|  4.7357e+01|  4.7357e+01|   -8.643195|  5.1138e-05|    0.040639|
|        2300|  4.7357e+01|  4.7357e+01|   -8.643467|  5.0853e-05|    0.040588|
|        2310|  4.7357e+01|  4.7357e+01|   -8.643429|  5.0522e-05|    0.040537|
|        2320|  4.7357e+01|  4.7357e+01|   -8.643342|  5.0175e-05|    0.040487|
|        2330|  4.7357e+01|  4.7357e+01|   -8.643588|  4.9824e-05|    0.040436|
|        2340|  4.7357e+01|  4.7357e+01|   -8.644379|  4.9508e-05|    0.040385|
|        2350|  4.7357e+01|  4.7357e+01|   -8.645820|  4.9227e-05|    0.040334|
|        2360|  8.1833e+00|  8.1833e+00|   -8.628081|  4.8421e-05|    0.040297|
|        2370|  5.0669e+01|  5.0669e+01|   -8.660281|  4.7068e-05|    0.040274|
|        2380|  2.6144e+01|  2.6144e+01|   -8.668134|  4.5491e-05|    0.040257|
|        2390|  4.5177e+01|  4.5177e+01|   -8.655180|  4.4971e-05|    0.040214|
|        2400|  4.5177e+01|  4.5177e+01|   -8.658124|  4.5597e-05|    0.040166|
+-----------------------------------------------------------------------+
|        File Writing Summary       |              Filename             |
+-----------------------------------------------------------------------+
|SU2 binary restart                 |restart_flow_G5.dat                |
|Paraview                           |flow_G5.vtu                        |
|Paraview surface                   |surface_flow_G5.vtu                |
+-----------------------------------------------------------------------+
+-----------------------------------------------------------------------------+
|  Inner_Iter|     Min CFL|     Max CFL|      rms[P]|  Cauchy[CD]|          CD|
+-----------------------------------------------------------------------------+
|        2410|  4.5177e+01|  4.5177e+01|   -8.662087|  4.6326e-05|    0.040118|
|        2420|  4.5177e+01|  4.5177e+01|   -8.664762|  4.7512e-05|    0.040069|
|        2430|  4.5177e+01|  4.5177e+01|   -8.669639|  4.7398e-05|    0.040021|
|        2440|  4.5177e+01|  4.5177e+01|   -8.674114|  4.7232e-05|    0.039973|
|        2450|  4.5177e+01|  4.5177e+01|   -8.678702|  4.7049e-05|    0.039926|
|        2460|  4.5177e+01|  4.5177e+01|   -8.683086|  4.6847e-05|    0.039878|
|        2470|  4.5177e+01|  4.5177e+01|   -8.687073|  4.6642e-05|    0.039831|
|        2480|  4.5177e+01|  4.5177e+01|   -8.690945|  4.6446e-05|    0.039784|
|        2490|  4.5177e+01|  4.5177e+01|   -8.694666|  4.6264e-05|    0.039738|
|        2500|  4.5177e+01|  4.5177e+01|   -8.698265|  4.6093e-05|    0.039691|
|        2510|  4.5177e+01|  4.5177e+01|   -8.701469|  4.5923e-05|    0.039644|
|        2520|  4.5177e+01|  4.5177e+01|   -8.703960|  4.5733e-05|    0.039598|
|        2530|  4.5177e+01|  4.5177e+01|   -8.705933|  4.5515e-05|    0.039553|
|        2540|  4.5177e+01|  4.5177e+01|   -8.707720|  4.5285e-05|    0.039507|
|        2550|  4.5177e+01|  4.5177e+01|   -8.709664|  4.5054e-05|    0.039462|
|        2560|  4.5177e+01|  4.5177e+01|   -8.711650|  4.4827e-05|    0.039417|
|        2570|  4.5177e+01|  4.5177e+01|   -8.713401|  4.4597e-05|    0.039372|
|        2580|  4.5177e+01|  4.5177e+01|   -8.714812|  4.4357e-05|    0.039327|
|        2590|  4.5177e+01|  4.5177e+01|   -8.716087|  4.4099e-05|    0.039283|
|        2600|  1.6188e+01|  1.6188e+01|   -8.733935|  4.2827e-05|    0.039264|
+-----------------------------------------------------------------------+
|        File Writing Summary       |              Filename             |
+-----------------------------------------------------------------------+
|SU2 binary restart                 |restart_flow_G5.dat                |
|Paraview                           |flow_G5.vtu                        |
|Paraview surface                   |surface_flow_G5.vtu                |
+-----------------------------------------------------------------------+
+-----------------------------------------------------------------------------+
|  Inner_Iter|     Min CFL|     Max CFL|      rms[P]|  Cauchy[CD]|          CD|
+-----------------------------------------------------------------------------+
|        2610|  8.3525e+00|  8.3525e+00|   -8.702899|  4.2225e-05|    0.039241|
|        2620|  4.3097e+01|  4.3097e+01|   -8.729120|  4.2148e-05|    0.039220|
|        2630|  4.3097e+01|  4.3097e+01|   -8.723920|  4.3130e-05|    0.039179|
|        2640|  4.3097e+01|  4.3097e+01|   -8.726169|  4.3064e-05|    0.039137|
|        2650|  4.3097e+01|  4.3097e+01|   -8.728555|  4.2803e-05|    0.039096|
|        2660|  4.3097e+01|  4.3097e+01|   -8.730244|  4.2553e-05|    0.039054|
|        2670|  4.3097e+01|  4.3097e+01|   -8.732994|  4.2281e-05|    0.039012|
|        2680|  4.3097e+01|  4.3097e+01|   -8.735477|  4.1996e-05|    0.038971|
|        2690|  4.3097e+01|  4.3097e+01|   -8.738218|  4.1712e-05|    0.038930|
|        2700|  4.3097e+01|  4.3097e+01|   -8.741268|  4.1441e-05|    0.038890|
|        2710|  4.3097e+01|  4.3097e+01|   -8.744588|  4.1169e-05|    0.038849|
|        2720|  4.3097e+01|  4.3097e+01|   -8.748255|  4.0900e-05|    0.038809|
|        2730|  4.3097e+01|  4.3097e+01|   -8.752076|  4.0645e-05|    0.038768|
|        2740|  4.3097e+01|  4.3097e+01|   -8.755951|  4.0389e-05|    0.038728|
|        2750|  4.3097e+01|  4.3097e+01|   -8.759697|  4.0126e-05|    0.038688|
|        2760|  4.3097e+01|  4.3097e+01|   -8.763318|  3.9866e-05|    0.038648|
|        2770|  4.3097e+01|  4.3097e+01|   -8.767069|  3.9611e-05|    0.038608|
|        2780|  4.3097e+01|  4.3097e+01|   -8.771139|  3.9361e-05|    0.038569|
|        2790|  4.3097e+01|  4.3097e+01|   -8.775514|  3.9115e-05|    0.038529|
|        2800|  4.3097e+01|  4.3097e+01|   -8.779943|  3.8874e-05|    0.038490|
+-----------------------------------------------------------------------+
|        File Writing Summary       |              Filename             |
+-----------------------------------------------------------------------+
|SU2 binary restart                 |restart_flow_G5.dat                |
|Paraview                           |flow_G5.vtu                        |
|Paraview surface                   |surface_flow_G5.vtu                |
+-----------------------------------------------------------------------+
+-----------------------------------------------------------------------------+
|  Inner_Iter|     Min CFL|     Max CFL|      rms[P]|  Cauchy[CD]|          CD|
+-----------------------------------------------------------------------------+
|        2810|  4.3097e+01|  4.3097e+01|   -8.784192|  3.8634e-05|    0.038451|
|        2820|  4.3097e+01|  4.3097e+01|   -8.788144|  3.8393e-05|    0.038412|
|        2830|  4.3097e+01|  4.3097e+01|   -8.791855|  3.8154e-05|    0.038373|
|        2840|  4.3097e+01|  4.3097e+01|   -8.795383|  3.7919e-05|    0.038335|
|        2850|  4.3097e+01|  4.3097e+01|   -8.798771|  3.8690e-05|    0.038296|
|        2860|  4.3097e+01|  4.3097e+01|   -8.802127|  3.9323e-05|    0.038258|
|        2870|  4.3097e+01|  4.3097e+01|   -8.805456|  3.9998e-05|    0.038220|
|        2880|  4.3097e+01|  4.3097e+01|   -8.808645|  3.9859e-05|    0.038182|
|        2890|  4.3097e+01|  4.3097e+01|   -8.811488|  3.9699e-05|    0.038145|
|        2900|  4.3097e+01|  4.3097e+01|   -8.813802|  3.9535e-05|    0.038107|
|        2910|  4.3097e+01|  4.3097e+01|   -8.815620|  3.9355e-05|    0.038070|
|        2920|  4.3097e+01|  4.3097e+01|   -8.817149|  3.9173e-05|    0.038033|
|        2930|  4.3097e+01|  4.3097e+01|   -8.818629|  3.8998e-05|    0.037996|
|        2940|  4.3097e+01|  4.3097e+01|   -8.820086|  3.8829e-05|    0.037960|
|        2950|  4.3097e+01|  4.3097e+01|   -8.821390|  3.8659e-05|    0.037923|
|        2960|  4.3097e+01|  4.3097e+01|   -8.822469|  3.8491e-05|    0.037887|
|        2970|  4.3097e+01|  4.3097e+01|   -8.823259|  3.8325e-05|    0.037851|
|        2980|  4.3097e+01|  4.3097e+01|   -8.823933|  3.8149e-05|    0.037815|
|        2990|  4.3097e+01|  4.3097e+01|   -8.824636|  3.7965e-05|    0.037779|
|        3000|  4.3097e+01|  4.3097e+01|   -8.825373|  3.7783e-05|    0.037743|
+-----------------------------------------------------------------------+
|        File Writing Summary       |              Filename             |
+-----------------------------------------------------------------------+
|SU2 binary restart                 |restart_flow_G5.dat                |
|Paraview                           |flow_G5.vtu                        |
|Paraview surface                   |surface_flow_G5.vtu                |
+-----------------------------------------------------------------------+
+-----------------------------------------------------------------------------+
|  Inner_Iter|     Min CFL|     Max CFL|      rms[P]|  Cauchy[CD]|          CD|
+-----------------------------------------------------------------------------+
|        3010|  4.3097e+01|  4.3097e+01|   -8.826262|  3.7604e-05|    0.037708|
|        3020|  5.1716e+00|  5.1716e+00|   -8.827270|  3.7301e-05|    0.037676|
|        3030|  3.2021e+01|  3.2021e+01|   -8.843604|  3.6170e-05|    0.037664|
|        3040|  1.6522e+01|  1.6522e+01|   -8.845008|  3.5175e-05|    0.037650|
|        3050|  4.1113e+01|  4.1113e+01|   -8.832821|  3.4660e-05|    0.037623|
|        3060|  4.1113e+01|  4.1113e+01|   -8.832836|  3.4419e-05|    0.037590|
|        3070|  4.1113e+01|  4.1113e+01|   -8.834056|  3.4182e-05|    0.037557|
|        3080|  4.1113e+01|  4.1113e+01|   -8.834651|  3.3953e-05|    0.037524|
|        3090|  4.1113e+01|  4.1113e+01|   -8.835535|  3.3734e-05|    0.037491|
|        3100|  4.1113e+01|  4.1113e+01|   -8.837014|  3.3519e-05|    0.037458|
|        3110|  4.1113e+01|  4.1113e+01|   -8.838353|  3.3302e-05|    0.037426|
|        3120|  4.1113e+01|  4.1113e+01|   -8.839788|  3.3081e-05|    0.037393|
|        3130|  4.1113e+01|  4.1113e+01|   -8.841305|  3.2861e-05|    0.037361|
|        3140|  4.1113e+01|  4.1113e+01|   -8.842841|  3.2639e-05|    0.037329|
|        3150|  4.1113e+01|  4.1113e+01|   -8.844383|  3.2419e-05|    0.037297|
|        3160|  4.1113e+01|  4.1113e+01|   -8.846003|  3.2207e-05|    0.037265|
|        3170|  4.1113e+01|  4.1113e+01|   -8.847846|  3.2001e-05|    0.037233|
|        3180|  4.1113e+01|  4.1113e+01|   -8.849777|  3.1795e-05|    0.037201|
|        3190|  4.1113e+01|  4.1113e+01|   -8.851720|  3.1588e-05|    0.037170|
|        3200|  4.1113e+01|  4.1113e+01|   -8.853535|  3.1381e-05|    0.037139|
+-----------------------------------------------------------------------+
|        File Writing Summary       |              Filename             |
+-----------------------------------------------------------------------+
|SU2 binary restart                 |restart_flow_G5.dat                |
|Paraview                           |flow_G5.vtu                        |
|Paraview surface                   |surface_flow_G5.vtu                |
+-----------------------------------------------------------------------+
+-----------------------------------------------------------------------------+
|  Inner_Iter|     Min CFL|     Max CFL|      rms[P]|  Cauchy[CD]|          CD|
+-----------------------------------------------------------------------------+
|        3210|  4.1113e+01|  4.1113e+01|   -8.855311|  3.1173e-05|    0.037107|
|        3220|  4.1113e+01|  4.1113e+01|   -8.857213|  3.0964e-05|    0.037076|
|        3230|  4.1113e+01|  4.1113e+01|   -8.859261|  3.0759e-05|    0.037046|
|        3240|  4.1113e+01|  4.1113e+01|   -8.861359|  3.0557e-05|    0.037015|
|        3250|  4.1113e+01|  4.1113e+01|   -8.863508|  3.0357e-05|    0.036984|
|        3260|  4.1113e+01|  4.1113e+01|   -8.865632|  3.0155e-05|    0.036954|
|        3270|  4.1113e+01|  4.1113e+01|   -8.867697|  3.0079e-05|    0.036924|
|        3280|  4.1113e+01|  4.1113e+01|   -8.869740|  3.0833e-05|    0.036893|
|        3290|  4.1113e+01|  4.1113e+01|   -8.871822|  3.1452e-05|    0.036864|
|        3300|  4.1113e+01|  4.1113e+01|   -8.874018|  3.1590e-05|    0.036834|
|        3310|  4.1113e+01|  4.1113e+01|   -8.876332|  3.1452e-05|    0.036804|
|        3320|  4.1113e+01|  4.1113e+01|   -8.878704|  3.1313e-05|    0.036774|
|        3330|  4.1113e+01|  4.1113e+01|   -8.881030|  3.1171e-05|    0.036745|
|        3340|  4.1113e+01|  4.1113e+01|   -8.883253|  3.1021e-05|    0.036716|
|        3350|  4.1113e+01|  4.1113e+01|   -8.885316|  3.0866e-05|    0.036687|
|        3360|  4.1113e+01|  4.1113e+01|   -8.887319|  3.0715e-05|    0.036658|
|        3370|  4.1113e+01|  4.1113e+01|   -8.889399|  3.0570e-05|    0.036629|
|        3380|  4.1113e+01|  4.1113e+01|   -8.891619|  3.0427e-05|    0.036600|
|        3390|  4.1113e+01|  4.1113e+01|   -8.893989|  3.0287e-05|    0.036571|
|        3400|  4.1113e+01|  4.1113e+01|   -8.896369|  3.0149e-05|    0.036543|
+-----------------------------------------------------------------------+
|        File Writing Summary       |              Filename             |
+-----------------------------------------------------------------------+
|SU2 binary restart                 |restart_flow_G5.dat                |
|Paraview                           |flow_G5.vtu                        |
|Paraview surface                   |surface_flow_G5.vtu                |
+-----------------------------------------------------------------------+
+-----------------------------------------------------------------------------+
|  Inner_Iter|     Min CFL|     Max CFL|      rms[P]|  Cauchy[CD]|          CD|
+-----------------------------------------------------------------------------+
|        3410|  4.1113e+01|  4.1113e+01|   -8.898645|  3.0007e-05|    0.036515|
|        3420|  4.1113e+01|  4.1113e+01|   -8.900796|  2.9861e-05|    0.036486|
|        3430|  4.1113e+01|  4.1113e+01|   -8.902890|  2.9716e-05|    0.036458|
|        3440|  4.1113e+01|  4.1113e+01|   -8.904991|  2.9574e-05|    0.036430|
|        3450|  4.1113e+01|  4.1113e+01|   -8.907155|  2.9434e-05|    0.036403|
|        3460|  4.1113e+01|  4.1113e+01|   -8.909408|  2.9296e-05|    0.036375|
|        3470|  4.1113e+01|  4.1113e+01|   -8.911677|  2.9160e-05|    0.036347|
|        3480|  4.1113e+01|  4.1113e+01|   -8.913886|  2.9023e-05|    0.036320|
|        3490|  4.1113e+01|  4.1113e+01|   -8.915997|  2.8883e-05|    0.036293|
|        3500|  4.1113e+01|  4.1113e+01|   -8.918024|  2.8743e-05|    0.036266|
|        3510|  4.1113e+01|  4.1113e+01|   -8.919997|  2.8605e-05|    0.036239|
|        3520|  4.1113e+01|  4.1113e+01|   -8.921976|  2.8469e-05|    0.036212|
|        3530|  4.1113e+01|  4.1113e+01|   -8.923981|  2.8334e-05|    0.036185|
|        3540|  4.1113e+01|  4.1113e+01|   -8.926012|  2.8200e-05|    0.036158|
|        3550|  4.1113e+01|  4.1113e+01|   -8.927980|  2.8067e-05|    0.036132|
|        3560|  4.1113e+01|  4.1113e+01|   -8.929840|  2.7933e-05|    0.036106|
|        3570|  4.1113e+01|  4.1113e+01|   -8.931579|  2.7799e-05|    0.036079|
|        3580|  4.1113e+01|  4.1113e+01|   -8.933178|  2.7664e-05|    0.036053|
|        3590|  4.1113e+01|  4.1113e+01|   -8.934726|  2.7530e-05|    0.036028|
|        3600|  4.1113e+01|  4.1113e+01|   -8.936253|  2.7397e-05|    0.036002|
+-----------------------------------------------------------------------+
|        File Writing Summary       |              Filename             |
+-----------------------------------------------------------------------+
|SU2 binary restart                 |restart_flow_G5.dat                |
|Paraview                           |flow_G5.vtu                        |
|Paraview surface                   |surface_flow_G5.vtu                |
+-----------------------------------------------------------------------+
+-----------------------------------------------------------------------------+
|  Inner_Iter|     Min CFL|     Max CFL|      rms[P]|  Cauchy[CD]|          CD|
+-----------------------------------------------------------------------------+
|        3610|  4.1113e+01|  4.1113e+01|   -8.937784|  2.7265e-05|    0.035976|
|        3620|  4.1113e+01|  4.1113e+01|   -8.939282|  2.7132e-05|    0.035951|
|        3630|  4.1113e+01|  4.1113e+01|   -8.940719|  2.6999e-05|    0.035925|
|        3640|  4.1113e+01|  4.1113e+01|   -8.942102|  2.6867e-05|    0.035900|
|        3650|  4.1113e+01|  4.1113e+01|   -8.943464|  2.6735e-05|    0.035875|
|        3660|  4.1113e+01|  4.1113e+01|   -8.944781|  2.6603e-05|    0.035850|
|        3670|  4.1113e+01|  4.1113e+01|   -8.946074|  2.6472e-05|    0.035825|
|        3680|  4.1113e+01|  4.1113e+01|   -8.947397|  2.6342e-05|    0.035800|
|        3690|  4.1113e+01|  4.1113e+01|   -8.948737|  2.6212e-05|    0.035775|
|        3700|  4.1113e+01|  4.1113e+01|   -8.950085|  2.6083e-05|    0.035751|
|        3710|  4.1113e+01|  4.1113e+01|   -8.951448|  2.5953e-05|    0.035726|
|        3720|  4.1113e+01|  4.1113e+01|   -8.952840|  2.5824e-05|    0.035702|
|        3730|  4.1113e+01|  4.1113e+01|   -8.954196|  2.5695e-05|    0.035678|
|        3740|  4.1113e+01|  4.1113e+01|   -8.955561|  2.5568e-05|    0.035654|
|        3750|  4.1113e+01|  4.1113e+01|   -8.956960|  2.5441e-05|    0.035630|
|        3760|  4.1113e+01|  4.1113e+01|   -8.958402|  2.5316e-05|    0.035606|
|        3770|  4.1113e+01|  4.1113e+01|   -8.959907|  2.5191e-05|    0.035582|
|        3780|  4.1113e+01|  4.1113e+01|   -8.961495|  2.5067e-05|    0.035558|
|        3790|  4.1113e+01|  4.1113e+01|   -8.963132|  2.4944e-05|    0.035535|
|        3800|  4.1113e+01|  4.1113e+01|   -8.964818|  2.4820e-05|    0.035512|
+-----------------------------------------------------------------------+
|        File Writing Summary       |              Filename             |
+-----------------------------------------------------------------------+
|SU2 binary restart                 |restart_flow_G5.dat                |
|Paraview                           |flow_G5.vtu                        |
|Paraview surface                   |surface_flow_G5.vtu                |
+-----------------------------------------------------------------------+
+-----------------------------------------------------------------------------+
|  Inner_Iter|     Min CFL|     Max CFL|      rms[P]|  Cauchy[CD]|          CD|
+-----------------------------------------------------------------------------+
|        3810|  4.1113e+01|  4.1113e+01|   -8.966515|  2.4698e-05|    0.035488|
|        3820|  4.1113e+01|  4.1113e+01|   -8.968246|  2.4577e-05|    0.035465|
|        3830|  4.1113e+01|  4.1113e+01|   -8.969971|  2.4456e-05|    0.035442|
|        3840|  4.1113e+01|  4.1113e+01|   -8.971723|  2.4337e-05|    0.035419|
|        3850|  4.1113e+01|  4.1113e+01|   -8.973527|  2.4218e-05|    0.035396|
|        3860|  4.1113e+01|  4.1113e+01|   -8.975357|  2.4100e-05|    0.035374|
|        3870|  4.1113e+01|  4.1113e+01|   -8.977210|  2.3983e-05|    0.035351|
|        3880|  4.1113e+01|  4.1113e+01|   -8.979086|  2.3866e-05|    0.035328|
|        3890|  4.1113e+01|  4.1113e+01|   -8.980992|  2.3750e-05|    0.035306|
|        3900|  4.1113e+01|  4.1113e+01|   -8.982907|  2.3634e-05|    0.035284|
|        3910|  4.1113e+01|  4.1113e+01|   -8.984837|  2.3519e-05|    0.035262|
|        3920|  4.1113e+01|  4.1113e+01|   -8.986777|  2.3404e-05|    0.035240|
|        3930|  4.1113e+01|  4.1113e+01|   -8.988705|  2.3289e-05|    0.035218|
|        3940|  4.1113e+01|  4.1113e+01|   -8.990618|  2.3175e-05|    0.035196|
|        3950|  4.1113e+01|  4.1113e+01|   -8.992536|  2.3062e-05|    0.035174|
|        3960|  4.1113e+01|  4.1113e+01|   -8.994461|  2.2950e-05|    0.035152|
|        3970|  4.1113e+01|  4.1113e+01|   -8.996375|  2.2839e-05|    0.035131|
|        3980|  4.1113e+01|  4.1113e+01|   -8.998279|  2.2729e-05|    0.035109|
|        3990|  4.1113e+01|  4.1113e+01|   -9.000160|  2.2618e-05|    0.035088|
|        4000|  4.1113e+01|  4.1113e+01|   -9.002042|  2.2508e-05|    0.035067|
+-----------------------------------------------------------------------+
|        File Writing Summary       |              Filename             |
+-----------------------------------------------------------------------+
|SU2 binary restart                 |restart_flow_G5.dat                |
|Paraview                           |flow_G5.vtu                        |
|Paraview surface                   |surface_flow_G5.vtu                |
+-----------------------------------------------------------------------+
+-----------------------------------------------------------------------------+
|  Inner_Iter|     Min CFL|     Max CFL|      rms[P]|  Cauchy[CD]|          CD|
+-----------------------------------------------------------------------------+
|        4010|  4.1113e+01|  4.1113e+01|   -9.003901|  2.2397e-05|    0.035046|
|        4020|  4.1113e+01|  4.1113e+01|   -9.005759|  2.2286e-05|    0.035025|
|        4030|  4.1113e+01|  4.1113e+01|   -9.007604|  2.2176e-05|    0.035004|
|        4040|  4.1113e+01|  4.1113e+01|   -9.009457|  2.2066e-05|    0.034983|
|        4050|  4.1113e+01|  4.1113e+01|   -9.011326|  2.1957e-05|    0.034963|
|        4060|  4.1113e+01|  4.1113e+01|   -9.013199|  2.1849e-05|    0.034942|
|        4070|  4.1113e+01|  4.1113e+01|   -9.015071|  2.1741e-05|    0.034922|
|        4080|  4.1113e+01|  4.1113e+01|   -9.016977|  2.1635e-05|    0.034901|
|        4090|  4.1113e+01|  4.1113e+01|   -9.018853|  2.1528e-05|    0.034881|
|        4100|  4.1113e+01|  4.1113e+01|   -9.020738|  2.1422e-05|    0.034861|
|        4110|  4.1113e+01|  4.1113e+01|   -9.022606|  2.1317e-05|    0.034841|
|        4120|  4.1113e+01|  4.1113e+01|   -9.024467|  2.1211e-05|    0.034821|
|        4130|  4.1113e+01|  4.1113e+01|   -9.026324|  2.1105e-05|    0.034801|
|        4140|  4.1113e+01|  4.1113e+01|   -9.028196|  2.1000e-05|    0.034781|
|        4150|  4.1113e+01|  4.1113e+01|   -9.030068|  2.0896e-05|    0.034761|
|        4160|  4.1113e+01|  4.1113e+01|   -9.031950|  2.0792e-05|    0.034742|
|        4170|  4.1113e+01|  4.1113e+01|   -9.033831|  2.0688e-05|    0.034722|
|        4180|  4.1113e+01|  4.1113e+01|   -9.035699|  2.0585e-05|    0.034703|
|        4190|  4.1113e+01|  4.1113e+01|   -9.037557|  2.0483e-05|    0.034684|
|        4200|  4.1113e+01|  4.1113e+01|   -9.039427|  2.0381e-05|    0.034665|
+-----------------------------------------------------------------------+
|        File Writing Summary       |              Filename             |
+-----------------------------------------------------------------------+
|SU2 binary restart                 |restart_flow_G5.dat                |
|Paraview                           |flow_G5.vtu                        |
|Paraview surface                   |surface_flow_G5.vtu                |
+-----------------------------------------------------------------------+
+-----------------------------------------------------------------------------+
|  Inner_Iter|     Min CFL|     Max CFL|      rms[P]|  Cauchy[CD]|          CD|
+-----------------------------------------------------------------------------+
|        4210|  4.1113e+01|  4.1113e+01|   -9.041283|  2.0279e-05|    0.034645|
|        4220|  4.1113e+01|  4.1113e+01|   -9.043124|  2.0178e-05|    0.034626|
|        4230|  4.1113e+01|  4.1113e+01|   -9.044974|  2.0077e-05|    0.034608|
|        4240|  4.1113e+01|  4.1113e+01|   -9.046819|  1.9976e-05|    0.034589|
|        4250|  4.1113e+01|  4.1113e+01|   -9.048636|  1.9876e-05|    0.034570|
|        4260|  4.1113e+01|  4.1113e+01|   -9.050437|  1.9776e-05|    0.034551|
|        4270|  4.1113e+01|  4.1113e+01|   -9.052205|  1.9676e-05|    0.034533|
|        4280|  4.1113e+01|  4.1113e+01|   -9.053951|  1.9577e-05|    0.034515|
|        4290|  4.1113e+01|  4.1113e+01|   -9.055692|  1.9479e-05|    0.034496|
|        4300|  4.1113e+01|  4.1113e+01|   -9.057413|  1.9381e-05|    0.034478|
|        4310|  4.1113e+01|  4.1113e+01|   -9.059141|  1.9283e-05|    0.034460|
|        4320|  4.1113e+01|  4.1113e+01|   -9.060867|  1.9185e-05|    0.034442|
|        4330|  4.1113e+01|  4.1113e+01|   -9.062615|  1.9088e-05|    0.034424|
|        4340|  4.1113e+01|  4.1113e+01|   -9.064384|  1.8991e-05|    0.034406|
|        4350|  4.1113e+01|  4.1113e+01|   -9.066175|  1.8894e-05|    0.034388|
|        4360|  4.1113e+01|  4.1113e+01|   -9.067971|  1.8798e-05|    0.034371|
|        4370|  4.1113e+01|  4.1113e+01|   -9.069746|  1.8702e-05|    0.034353|
|        4380|  4.1113e+01|  4.1113e+01|   -9.071517|  1.8607e-05|    0.034336|
|        4390|  4.1113e+01|  4.1113e+01|   -9.073299|  1.8513e-05|    0.034318|
|        4400|  4.1113e+01|  4.1113e+01|   -9.075080|  1.8419e-05|    0.034301|
+-----------------------------------------------------------------------+
|        File Writing Summary       |              Filename             |
+-----------------------------------------------------------------------+
|SU2 binary restart                 |restart_flow_G5.dat                |
|Paraview                           |flow_G5.vtu                        |
|Paraview surface                   |surface_flow_G5.vtu                |
+-----------------------------------------------------------------------+
+-----------------------------------------------------------------------------+
|  Inner_Iter|     Min CFL|     Max CFL|      rms[P]|  Cauchy[CD]|          CD|
+-----------------------------------------------------------------------------+
|        4410|  4.1113e+01|  4.1113e+01|   -9.076867|  1.8326e-05|    0.034284|
|        4420|  4.1113e+01|  4.1113e+01|   -9.078668|  1.8233e-05|    0.034267|
|        4430|  4.1113e+01|  4.1113e+01|   -9.080493|  1.8141e-05|    0.034249|
|        4440|  4.1113e+01|  4.1113e+01|   -9.081788|  1.8049e-05|    0.034232|
|        4450|  4.1113e+01|  4.1113e+01|   -9.083257|  1.7957e-05|    0.034216|
|        4460|  4.1113e+01|  4.1113e+01|   -9.084844|  1.7866e-05|    0.034199|
|        4470|  4.1113e+01|  4.1113e+01|   -9.086615|  1.7775e-05|    0.034182|
|        4480|  4.1113e+01|  4.1113e+01|   -9.088648|  1.7684e-05|    0.034165|
|        4490|  4.1113e+01|  4.1113e+01|   -9.090861|  1.7594e-05|    0.034149|
|        4500|  4.1113e+01|  4.1113e+01|   -9.093089|  1.7504e-05|    0.034132|
|        4510|  4.1113e+01|  4.1113e+01|   -9.095226|  1.7415e-05|    0.034116|
|        4520|  4.1113e+01|  4.1113e+01|   -9.097197|  1.7327e-05|    0.034100|
|        4530|  4.1113e+01|  4.1113e+01|   -9.099032|  1.7239e-05|    0.034084|
|        4540|  4.1113e+01|  4.1113e+01|   -9.100824|  1.7151e-05|    0.034068|
|        4550|  4.1113e+01|  4.1113e+01|   -9.102651|  1.7064e-05|    0.034051|
|        4560|  4.1113e+01|  4.1113e+01|   -9.104550|  1.6978e-05|    0.034036|
|        4570|  4.1113e+01|  4.1113e+01|   -9.106533|  1.6892e-05|    0.034020|
|        4580|  4.1113e+01|  4.1113e+01|   -9.108546|  1.6806e-05|    0.034004|
|        4590|  4.1113e+01|  4.1113e+01|   -9.110553|  1.6720e-05|    0.033988|
|        4600|  4.1113e+01|  4.1113e+01|   -9.112537|  1.6635e-05|    0.033972|
+-----------------------------------------------------------------------+
|        File Writing Summary       |              Filename             |
+-----------------------------------------------------------------------+
|SU2 binary restart                 |restart_flow_G5.dat                |
|Paraview                           |flow_G5.vtu                        |
|Paraview surface                   |surface_flow_G5.vtu                |
+-----------------------------------------------------------------------+
+-----------------------------------------------------------------------------+
|  Inner_Iter|     Min CFL|     Max CFL|      rms[P]|  Cauchy[CD]|          CD|
+-----------------------------------------------------------------------------+
|        4610|  4.1113e+01|  4.1113e+01|   -9.114451|  1.6550e-05|    0.033957|
|        4620|  4.1113e+01|  4.1113e+01|   -9.116325|  1.6466e-05|    0.033941|
|        4630|  4.1113e+01|  4.1113e+01|   -9.118181|  1.6382e-05|    0.033926|
|        4640|  4.1113e+01|  4.1113e+01|   -9.120067|  1.6298e-05|    0.033911|
|        4650|  4.1113e+01|  4.1113e+01|   -9.121993|  1.6215e-05|    0.033896|
|        4660|  4.1113e+01|  4.1113e+01|   -9.123952|  1.6132e-05|    0.033880|
|        4670|  4.1113e+01|  4.1113e+01|   -9.125917|  1.6050e-05|    0.033865|
|        4680|  4.1113e+01|  4.1113e+01|   -9.127865|  1.5969e-05|    0.033850|
|        4690|  4.1113e+01|  4.1113e+01|   -9.129772|  1.5887e-05|    0.033835|
|        4700|  4.1113e+01|  4.1113e+01|   -9.131660|  1.5806e-05|    0.033820|
|        4710|  4.1113e+01|  4.1113e+01|   -9.133566|  1.5726e-05|    0.033806|
|        4720|  4.1113e+01|  4.1113e+01|   -9.135478|  1.5646e-05|    0.033791|
|        4730|  4.1113e+01|  4.1113e+01|   -9.137434|  1.5567e-05|    0.033776|
|        4740|  4.1113e+01|  4.1113e+01|   -9.139387|  1.5488e-05|    0.033762|
|        4750|  4.1113e+01|  4.1113e+01|   -9.141341|  1.5410e-05|    0.033747|
|        4760|  4.1113e+01|  4.1113e+01|   -9.143264|  1.5332e-05|    0.033733|
|        4770|  4.1113e+01|  4.1113e+01|   -9.145197|  1.5254e-05|    0.033718|
|        4780|  4.1113e+01|  4.1113e+01|   -9.147128|  1.5176e-05|    0.033704|
|        4790|  4.1113e+01|  4.1113e+01|   -9.149051|  1.5099e-05|    0.033690|
|        4800|  4.1113e+01|  4.1113e+01|   -9.151012|  1.5021e-05|    0.033676|
+-----------------------------------------------------------------------+
|        File Writing Summary       |              Filename             |
+-----------------------------------------------------------------------+
|SU2 binary restart                 |restart_flow_G5.dat                |
|Paraview                           |flow_G5.vtu                        |
|Paraview surface                   |surface_flow_G5.vtu                |
+-----------------------------------------------------------------------+
+-----------------------------------------------------------------------------+
|  Inner_Iter|     Min CFL|     Max CFL|      rms[P]|  Cauchy[CD]|          CD|
+-----------------------------------------------------------------------------+
|        4810|  4.1113e+01|  4.1113e+01|   -9.152964|  1.4944e-05|    0.033662|
|        4820|  4.1113e+01|  4.1113e+01|   -9.154933|  1.4867e-05|    0.033648|
|        4830|  4.1113e+01|  4.1113e+01|   -9.156899|  1.4791e-05|    0.033634|
|        4840|  4.1113e+01|  4.1113e+01|   -9.158887|  1.4715e-05|    0.033620|
|        4850|  4.1113e+01|  4.1113e+01|   -9.160891|  1.4640e-05|    0.033606|
|        4860|  4.1113e+01|  4.1113e+01|   -9.162891|  1.4565e-05|    0.033593|
|        4870|  4.1113e+01|  4.1113e+01|   -9.164861|  1.4490e-05|    0.033579|
|        4880|  4.1113e+01|  4.1113e+01|   -9.166828|  1.4416e-05|    0.033566|
|        4890|  4.1113e+01|  4.1113e+01|   -9.168776|  1.4342e-05|    0.033552|
|        4900|  4.1113e+01|  4.1113e+01|   -9.170716|  1.4268e-05|    0.033539|
|        4910|  4.1113e+01|  4.1113e+01|   -9.172651|  1.4194e-05|    0.033526|
|        4920|  4.1113e+01|  4.1113e+01|   -9.174601|  1.4121e-05|    0.033512|
|        4930|  4.1113e+01|  4.1113e+01|   -9.176530|  1.4047e-05|    0.033499|
|        4940|  4.1113e+01|  4.1113e+01|   -9.178471|  1.3974e-05|    0.033486|
|        4950|  4.1113e+01|  4.1113e+01|   -9.180417|  1.3902e-05|    0.033473|
|        4960|  4.1113e+01|  4.1113e+01|   -9.182371|  1.3830e-05|    0.033460|
|        4970|  4.1113e+01|  4.1113e+01|   -9.184346|  1.3758e-05|    0.033447|
|        4980|  4.1113e+01|  4.1113e+01|   -9.186313|  1.3687e-05|    0.033434|
|        4990|  4.1113e+01|  4.1113e+01|   -9.188289|  1.3615e-05|    0.033421|
|        5000|  4.1113e+01|  4.1113e+01|   -9.190278|  1.3545e-05|    0.033409|
+-----------------------------------------------------------------------+
|        File Writing Summary       |              Filename             |
+-----------------------------------------------------------------------+
|SU2 binary restart                 |restart_flow_G5.dat                |
|Paraview                           |flow_G5.vtu                        |
|Paraview surface                   |surface_flow_G5.vtu                |
+-----------------------------------------------------------------------+
+-----------------------------------------------------------------------------+
|  Inner_Iter|     Min CFL|     Max CFL|      rms[P]|  Cauchy[CD]|          CD|
+-----------------------------------------------------------------------------+
|        5010|  4.1113e+01|  4.1113e+01|   -9.192264|  1.3475e-05|    0.033396|
|        5020|  4.1113e+01|  4.1113e+01|   -9.194247|  1.3405e-05|    0.033383|
|        5030|  4.1113e+01|  4.1113e+01|   -9.196216|  1.3335e-05|    0.033371|
|        5040|  4.1113e+01|  4.1113e+01|   -9.198188|  1.3267e-05|    0.033358|
|        5050|  4.1113e+01|  4.1113e+01|   -9.200170|  1.3198e-05|    0.033346|
|        5060|  4.1113e+01|  4.1113e+01|   -9.202136|  1.3130e-05|    0.033334|
|        5070|  4.1113e+01|  4.1113e+01|   -9.204098|  1.3063e-05|    0.033321|
|        5080|  4.1113e+01|  4.1113e+01|   -9.206072|  1.2995e-05|    0.033309|
|        5090|  4.1113e+01|  4.1113e+01|   -9.208057|  1.2928e-05|    0.033297|
|        5100|  4.1113e+01|  4.1113e+01|   -9.210070|  1.2861e-05|    0.033285|
|        5110|  4.1113e+01|  4.1113e+01|   -9.212103|  1.2794e-05|    0.033273|
|        5120|  4.1113e+01|  4.1113e+01|   -9.214152|  1.2728e-05|    0.033261|
|        5130|  4.1113e+01|  4.1113e+01|   -9.216212|  1.2662e-05|    0.033249|
|        5140|  4.1113e+01|  4.1113e+01|   -9.218255|  1.2597e-05|    0.033237|
|        5150|  4.1113e+01|  4.1113e+01|   -9.220305|  1.2531e-05|    0.033226|
|        5160|  4.1113e+01|  4.1113e+01|   -9.222362|  1.2466e-05|    0.033214|
|        5170|  4.1113e+01|  4.1113e+01|   -9.224422|  1.2401e-05|    0.033202|
|        5180|  4.1113e+01|  4.1113e+01|   -9.226470|  1.2337e-05|    0.033191|
|        5190|  4.1113e+01|  4.1113e+01|   -9.228515|  1.2273e-05|    0.033179|
|        5200|  4.1113e+01|  4.1113e+01|   -9.230552|  1.2209e-05|    0.033168|
+-----------------------------------------------------------------------+
|        File Writing Summary       |              Filename             |
+-----------------------------------------------------------------------+
|SU2 binary restart                 |restart_flow_G5.dat                |
|Paraview                           |flow_G5.vtu                        |
|Paraview surface                   |surface_flow_G5.vtu                |
+-----------------------------------------------------------------------+
+-----------------------------------------------------------------------------+
|  Inner_Iter|     Min CFL|     Max CFL|      rms[P]|  Cauchy[CD]|          CD|
+-----------------------------------------------------------------------------+
|        5210|  4.1113e+01|  4.1113e+01|   -9.232583|  1.2145e-05|    0.033156|
|        5220|  4.1113e+01|  4.1113e+01|   -9.234602|  1.2082e-05|    0.033145|
|        5230|  4.1113e+01|  4.1113e+01|   -9.236635|  1.2019e-05|    0.033134|
|        5240|  4.1113e+01|  4.1113e+01|   -9.238672|  1.1956e-05|    0.033122|
|        5250|  4.1113e+01|  4.1113e+01|   -9.240700|  1.1893e-05|    0.033111|
|        5260|  4.1113e+01|  4.1113e+01|   -9.242724|  1.1831e-05|    0.033100|
|        5270|  4.1113e+01|  4.1113e+01|   -9.244744|  1.1770e-05|    0.033089|
|        5280|  4.1113e+01|  4.1113e+01|   -9.246779|  1.1708e-05|    0.033078|
|        5290|  4.1113e+01|  4.1113e+01|   -9.248809|  1.1647e-05|    0.033067|
|        5300|  4.1113e+01|  4.1113e+01|   -9.250830|  1.1587e-05|    0.033056|
|        5310|  4.1113e+01|  4.1113e+01|   -9.252852|  1.1526e-05|    0.033045|
|        5320|  4.1113e+01|  4.1113e+01|   -9.254877|  1.1466e-05|    0.033035|
|        5330|  4.1113e+01|  4.1113e+01|   -9.256905|  1.1407e-05|    0.033024|
|        5340|  4.1113e+01|  4.1113e+01|   -9.258916|  1.1348e-05|    0.033013|
|        5350|  4.1113e+01|  4.1113e+01|   -9.260933|  1.1289e-05|    0.033003|
|        5360|  4.1113e+01|  4.1113e+01|   -9.262961|  1.1231e-05|    0.032992|
|        5370|  4.1113e+01|  4.1113e+01|   -9.264991|  1.1172e-05|    0.032982|
|        5380|  4.1113e+01|  4.1113e+01|   -9.267033|  1.1115e-05|    0.032971|
|        5390|  4.1113e+01|  4.1113e+01|   -9.269083|  1.1058e-05|    0.032961|
|        5400|  4.1113e+01|  4.1113e+01|   -9.271133|  1.1000e-05|    0.032951|
+-----------------------------------------------------------------------+
|        File Writing Summary       |              Filename             |
+-----------------------------------------------------------------------+
|SU2 binary restart                 |restart_flow_G5.dat                |
|Paraview                           |flow_G5.vtu                        |
|Paraview surface                   |surface_flow_G5.vtu                |
+-----------------------------------------------------------------------+
+-----------------------------------------------------------------------------+
|  Inner_Iter|     Min CFL|     Max CFL|      rms[P]|  Cauchy[CD]|          CD|
+-----------------------------------------------------------------------------+
|        5410|  4.1113e+01|  4.1113e+01|   -9.273196|  1.0944e-05|    0.032940|
|        5420|  4.1113e+01|  4.1113e+01|   -9.275254|  1.0887e-05|    0.032930|
|        5430|  4.1113e+01|  4.1113e+01|   -9.277321|  1.0831e-05|    0.032920|
|        5440|  4.1113e+01|  4.1113e+01|   -9.279391|  1.0775e-05|    0.032910|
|        5450|  4.1113e+01|  4.1113e+01|   -9.281439|  1.0719e-05|    0.032900|
|        5460|  4.1113e+01|  4.1113e+01|   -9.283509|  1.0663e-05|    0.032890|
|        5470|  4.1113e+01|  4.1113e+01|   -9.285587|  1.0607e-05|    0.032880|
|        5480|  4.1113e+01|  4.1113e+01|   -9.287680|  1.0552e-05|    0.032870|
|        5490|  4.1113e+01|  4.1113e+01|   -9.289783|  1.0496e-05|    0.032860|
|        5500|  4.1113e+01|  4.1113e+01|   -9.291878|  1.0441e-05|    0.032850|
|        5510|  4.1113e+01|  4.1113e+01|   -9.293975|  1.0386e-05|    0.032841|
|        5520|  4.1113e+01|  4.1113e+01|   -9.296072|  1.0331e-05|    0.032831|
|        5530|  4.1113e+01|  4.1113e+01|   -9.298170|  1.0277e-05|    0.032821|
|        5540|  4.1113e+01|  4.1113e+01|   -9.300259|  1.0222e-05|    0.032812|
|        5550|  4.1113e+01|  4.1113e+01|   -9.302355|  1.0168e-05|    0.032802|
|        5560|  4.1113e+01|  4.1113e+01|   -9.304440|  1.0114e-05|    0.032793|
|        5570|  4.1113e+01|  4.1113e+01|   -9.306533|  1.0061e-05|    0.032783|
|        5580|  4.1113e+01|  4.1113e+01|   -9.308626|  1.0007e-05|    0.032774|
|        5590|  4.1113e+01|  4.1113e+01|   -9.310735|  9.9538e-06|    0.032764|
|        5600|  4.1113e+01|  4.1113e+01|   -9.312862|  9.9008e-06|    0.032755|
+-----------------------------------------------------------------------+
|        File Writing Summary       |              Filename             |
+-----------------------------------------------------------------------+
|SU2 binary restart                 |restart_flow_G5.dat                |
|Paraview                           |flow_G5.vtu                        |
|Paraview surface                   |surface_flow_G5.vtu                |
+-----------------------------------------------------------------------+
+-----------------------------------------------------------------------------+
|  Inner_Iter|     Min CFL|     Max CFL|      rms[P]|  Cauchy[CD]|          CD|
+-----------------------------------------------------------------------------+
|        5610|  4.1113e+01|  4.1113e+01|   -9.314986|  9.8482e-06|    0.032746|
|        5620|  4.1113e+01|  4.1113e+01|   -9.317099|  9.7958e-06|    0.032737|
|        5630|  4.1113e+01|  4.1113e+01|   -9.319202|  9.7437e-06|    0.032728|
|        5640|  4.1113e+01|  4.1113e+01|   -9.321307|  9.6918e-06|    0.032719|
|        5650|  4.1113e+01|  4.1113e+01|   -9.323408|  9.6402e-06|    0.032710|
|        5660|  4.1113e+01|  4.1113e+01|   -9.325507|  9.5890e-06|    0.032701|
|        5670|  4.1113e+01|  4.1113e+01|   -9.327619|  9.5381e-06|    0.032692|
|        5680|  4.1113e+01|  4.1113e+01|   -9.329749|  9.4876e-06|    0.032683|
|        5690|  4.1113e+01|  4.1113e+01|   -9.331879|  9.4376e-06|    0.032674|
|        5700|  4.1113e+01|  4.1113e+01|   -9.334011|  9.3880e-06|    0.032665|
|        5710|  4.1113e+01|  4.1113e+01|   -9.336143|  9.3388e-06|    0.032656|
|        5720|  4.1113e+01|  4.1113e+01|   -9.338260|  9.2900e-06|    0.032648|
|        5730|  4.1113e+01|  4.1113e+01|   -9.340360|  9.2414e-06|    0.032639|
[...]
|        8300|  4.1113e+01|  4.1113e+01|   -9.932324|  2.2731e-06|    0.031437|
|        8310|  4.1113e+01|  4.1113e+01|   -9.934709|  2.2602e-06|    0.031435|
|        8320|  4.1113e+01|  4.1113e+01|   -9.937092|  2.2475e-06|    0.031433|
|        8330|  4.1113e+01|  4.1113e+01|   -9.939477|  2.2348e-06|    0.031431|
|        8340|  4.1113e+01|  4.1113e+01|   -9.941863|  2.2222e-06|    0.031429|
|        8350|  4.1113e+01|  4.1113e+01|   -9.944250|  2.2097e-06|    0.031427|
|        8360|  4.1113e+01|  4.1113e+01|   -9.946641|  2.1972e-06|    0.031425|
|        8370|  4.1113e+01|  4.1113e+01|   -9.949026|  2.1849e-06|    0.031423|
|        8380|  4.1113e+01|  4.1113e+01|   -9.951412|  2.1726e-06|    0.031421|
|        8390|  4.1113e+01|  4.1113e+01|   -9.953794|  2.1604e-06|    0.031419|
|        8400|  4.1113e+01|  4.1113e+01|   -9.956178|  2.1484e-06|    0.031417|
+-----------------------------------------------------------------------+
|        File Writing Summary       |              Filename             |
+-----------------------------------------------------------------------+
|SU2 binary restart                 |restart_flow_G5.dat                |
|Paraview                           |flow_G5.vtu                        |
|Paraview surface                   |surface_flow_G5.vtu                |
+-----------------------------------------------------------------------+
+-----------------------------------------------------------------------------+
|  Inner_Iter|     Min CFL|     Max CFL|      rms[P]|  Cauchy[CD]|          CD|
+-----------------------------------------------------------------------------+
|        8410|  4.1113e+01|  4.1113e+01|   -9.958556|  2.1363e-06|    0.031415|
|        8420|  4.1113e+01|  4.1113e+01|   -9.960930|  2.1244e-06|    0.031413|
|        8430|  4.1113e+01|  4.1113e+01|   -9.963303|  2.1126e-06|    0.031411|
|        8440|  4.1113e+01|  4.1113e+01|   -9.965673|  2.1007e-06|    0.031409|
|        8450|  4.1113e+01|  4.1113e+01|   -9.968038|  2.0890e-06|    0.031407|
|        8460|  4.1113e+01|  4.1113e+01|   -9.970416|  2.0773e-06|    0.031405|
|        8470|  4.1113e+01|  4.1113e+01|   -9.972795|  2.0657e-06|    0.031403|
|        8480|  4.1113e+01|  4.1113e+01|   -9.975177|  2.0542e-06|    0.031401|
|        8490|  4.1113e+01|  4.1113e+01|   -9.977561|  2.0427e-06|    0.031399|
|        8500|  4.1113e+01|  4.1113e+01|   -9.979945|  2.0313e-06|    0.031397|
|        8510|  4.1113e+01|  4.1113e+01|   -9.982329|  2.0200e-06|    0.031395|
|        8520|  4.1113e+01|  4.1113e+01|   -9.984715|  2.0087e-06|    0.031394|
|        8530|  4.1113e+01|  4.1113e+01|   -9.987096|  1.9976e-06|    0.031392|
|        8540|  4.1113e+01|  4.1113e+01|   -9.989479|  1.9864e-06|    0.031390|
|        8550|  4.1113e+01|  4.1113e+01|   -9.991864|  1.9754e-06|    0.031388|
|        8560|  1.7678e+01|  1.7678e+01|  -10.003213|  1.9262e-06|    0.031387|
|        8570|  9.1213e+00|  9.1213e+00|   -9.996953|  1.8784e-06|    0.031386|
|        8580|  4.7064e+00|  4.7064e+00|   -9.999779|  1.8368e-06|    0.031385|
|        8590|  2.9141e+01|  2.9141e+01|  -10.007635|  1.7754e-06|    0.031385|
|        8600|  4.1963e+01|  4.1963e+01|   -9.999199|  1.7626e-06|    0.031383|
+-----------------------------------------------------------------------+
|        File Writing Summary       |              Filename             |
+-----------------------------------------------------------------------+
|SU2 binary restart                 |restart_flow_G5.dat                |
|Paraview                           |flow_G5.vtu                        |
|Paraview surface                   |surface_flow_G5.vtu                |
+-----------------------------------------------------------------------+
+-----------------------------------------------------------------------------+
|  Inner_Iter|     Min CFL|     Max CFL|      rms[P]|  Cauchy[CD]|          CD|
+-----------------------------------------------------------------------------+
|        8610|  4.1963e+01|  4.1963e+01|  -10.001466|  1.7543e-06|    0.031381|
|        8620|  4.1963e+01|  4.1963e+01|  -10.003755|  1.7455e-06|    0.031379|
|        8630|  4.1963e+01|  4.1963e+01|  -10.005848|  1.7374e-06|    0.031377|
|        8640|  4.1963e+01|  4.1963e+01|  -10.008315|  1.7301e-06|    0.031376|
|        8650|  4.1963e+01|  4.1963e+01|  -10.010681|  1.7228e-06|    0.031374|
|        8660|  4.1963e+01|  4.1963e+01|  -10.012796|  1.7149e-06|    0.031372|
|        8670|  4.1963e+01|  4.1963e+01|  -10.015034|  1.7064e-06|    0.031370|
|        8680|  4.1963e+01|  4.1963e+01|  -10.017455|  1.6979e-06|    0.031368|
|        8690|  4.1963e+01|  4.1963e+01|  -10.019918|  1.6897e-06|    0.031367|
|        8700|  4.1963e+01|  4.1963e+01|  -10.022427|  1.6818e-06|    0.031365|
|        8710|  4.1963e+01|  4.1963e+01|  -10.024984|  1.6741e-06|    0.031363|
|        8720|  4.1963e+01|  4.1963e+01|  -10.027567|  1.6665e-06|    0.031361|
|        8730|  4.1963e+01|  4.1963e+01|  -10.030118|  1.6589e-06|    0.031360|
|        8740|  4.1963e+01|  4.1963e+01|  -10.032485|  1.6513e-06|    0.031358|
|        8750|  4.1963e+01|  4.1963e+01|  -10.034755|  1.6434e-06|    0.031356|
|        8760|  4.1963e+01|  4.1963e+01|  -10.037159|  1.6354e-06|    0.031355|
|        8770|  4.1963e+01|  4.1963e+01|  -10.039761|  1.6277e-06|    0.031353|
|        8780|  4.1963e+01|  4.1963e+01|  -10.042445|  1.6202e-06|    0.031351|
|        8790|  4.1963e+01|  4.1963e+01|  -10.045084|  1.6128e-06|    0.031350|
|        8800|  4.1963e+01|  4.1963e+01|  -10.047607|  1.6052e-06|    0.031348|
+-----------------------------------------------------------------------+
|        File Writing Summary       |              Filename             |
+-----------------------------------------------------------------------+
|SU2 binary restart                 |restart_flow_G5.dat                |
|Paraview                           |flow_G5.vtu                        |
|Paraview surface                   |surface_flow_G5.vtu                |
+-----------------------------------------------------------------------+
+-----------------------------------------------------------------------------+
|  Inner_Iter|     Min CFL|     Max CFL|      rms[P]|  Cauchy[CD]|          CD|
+-----------------------------------------------------------------------------+
|        8810|  4.1963e+01|  4.1963e+01|  -10.049979|  1.6358e-06|    0.031346|
|        8820|  4.1963e+01|  4.1963e+01|  -10.052255|  1.6650e-06|    0.031345|
|        8830|  4.1963e+01|  4.1963e+01|  -10.054580|  1.6883e-06|    0.031343|
|        8840|  4.1963e+01|  4.1963e+01|  -10.057094|  1.7315e-06|    0.031341|
|        8850|  4.1963e+01|  4.1963e+01|  -10.059807|  1.7262e-06|    0.031340|
|        8860|  4.1963e+01|  4.1963e+01|  -10.062583|  1.7166e-06|    0.031338|
|        8870|  4.1963e+01|  4.1963e+01|  -10.065249|  1.7075e-06|    0.031337|
|        8880|  4.1963e+01|  4.1963e+01|  -10.067713|  1.6977e-06|    0.031335|
|        8890|  4.1963e+01|  4.1963e+01|  -10.070003|  1.6871e-06|    0.031333|
|        8900|  4.1963e+01|  4.1963e+01|  -10.072273|  1.6766e-06|    0.031332|
|        8910|  4.1963e+01|  4.1963e+01|  -10.074693|  1.6670e-06|    0.031330|
|        8920|  4.1963e+01|  4.1963e+01|  -10.077322|  1.6581e-06|    0.031329|
|        8930|  4.1963e+01|  4.1963e+01|  -10.080073|  1.6492e-06|    0.031327|
|        8940|  4.1963e+01|  4.1963e+01|  -10.082786|  1.6402e-06|    0.031326|
|        8950|  4.1963e+01|  4.1963e+01|  -10.085340|  1.6309e-06|    0.031324|
|        8960|  4.1963e+01|  4.1963e+01|  -10.087715|  1.6215e-06|    0.031323|
|        8970|  4.1963e+01|  4.1963e+01|  -10.090032|  1.6120e-06|    0.031321|
|        8980|  4.1963e+01|  4.1963e+01|  -10.092424|  1.6026e-06|    0.031320|
|        8990|  4.1963e+01|  4.1963e+01|  -10.094971|  1.5934e-06|    0.031318|
|        9000|  4.1963e+01|  4.1963e+01|  -10.097643|  1.5846e-06|    0.031317|
+-----------------------------------------------------------------------+
|        File Writing Summary       |              Filename             |
+-----------------------------------------------------------------------+
|SU2 binary restart                 |restart_flow_G5.dat                |
|Paraview                           |flow_G5.vtu                        |
|Paraview surface                   |surface_flow_G5.vtu                |
+-----------------------------------------------------------------------+
+-----------------------------------------------------------------------------+
|  Inner_Iter|     Min CFL|     Max CFL|      rms[P]|  Cauchy[CD]|          CD|
+-----------------------------------------------------------------------------+
|        9010|  4.1963e+01|  4.1963e+01|  -10.100324|  1.5758e-06|    0.031315|
|        9020|  4.1963e+01|  4.1963e+01|  -10.102910|  1.5669e-06|    0.031314|
|        9030|  4.1963e+01|  4.1963e+01|  -10.105369|  1.5578e-06|    0.031312|
|        9040|  4.1963e+01|  4.1963e+01|  -10.107757|  1.5488e-06|    0.031311|
|        9050|  4.1963e+01|  4.1963e+01|  -10.110162|  1.5400e-06|    0.031309|
|        9060|  4.1963e+01|  4.1963e+01|  -10.112657|  1.5313e-06|    0.031308|
|        9070|  4.1963e+01|  4.1963e+01|  -10.115245|  1.5227e-06|    0.031307|
|        9080|  4.1963e+01|  4.1963e+01|  -10.117865|  1.5141e-06|    0.031305|
|        9090|  4.1963e+01|  4.1963e+01|  -10.120444|  1.5054e-06|    0.031304|
|        9100|  4.1963e+01|  4.1963e+01|  -10.122947|  1.4968e-06|    0.031302|
|        9110|  4.1963e+01|  4.1963e+01|  -10.125395|  1.4882e-06|    0.031301|
|        9120|  4.1963e+01|  4.1963e+01|  -10.127841|  1.4796e-06|    0.031300|
|        9130|  4.1963e+01|  4.1963e+01|  -10.130333|  1.4713e-06|    0.031298|
|        9140|  4.1963e+01|  4.1963e+01|  -10.132873|  1.4630e-06|    0.031297|
|        9150|  4.1963e+01|  4.1963e+01|  -10.135432|  1.4548e-06|    0.031295|
|        9160|  4.1963e+01|  4.1963e+01|  -10.137979|  1.4465e-06|    0.031294|
|        9170|  4.1963e+01|  4.1963e+01|  -10.140491|  1.4382e-06|    0.031293|
|        9180|  4.1963e+01|  4.1963e+01|  -10.142971|  1.4299e-06|    0.031291|
|        9190|  4.1963e+01|  4.1963e+01|  -10.145443|  1.4217e-06|    0.031290|
|        9200|  4.1963e+01|  4.1963e+01|  -10.147928|  1.4136e-06|    0.031289|
+-----------------------------------------------------------------------+
|        File Writing Summary       |              Filename             |
+-----------------------------------------------------------------------+
|SU2 binary restart                 |restart_flow_G5.dat                |
|Paraview                           |flow_G5.vtu                        |
|Paraview surface                   |surface_flow_G5.vtu                |
+-----------------------------------------------------------------------+
+-----------------------------------------------------------------------------+
|  Inner_Iter|     Min CFL|     Max CFL|      rms[P]|  Cauchy[CD]|          CD|
+-----------------------------------------------------------------------------+
|        9210|  4.1963e+01|  4.1963e+01|  -10.150431|  1.4056e-06|    0.031287|
|        9220|  4.1963e+01|  4.1963e+01|  -10.152950|  1.3976e-06|    0.031286|
|        9230|  4.1963e+01|  4.1963e+01|  -10.155473|  1.3896e-06|    0.031285|
|        9240|  4.1963e+01|  4.1963e+01|  -10.157991|  1.3817e-06|    0.031284|
|        9250|  4.1963e+01|  4.1963e+01|  -10.160501|  1.3737e-06|    0.031282|
|        9260|  4.1963e+01|  4.1963e+01|  -10.163006|  1.3659e-06|    0.031281|
|        9270|  4.1963e+01|  4.1963e+01|  -10.165510|  1.3580e-06|    0.031280|
|        9280|  4.1963e+01|  4.1963e+01|  -10.168014|  1.3502e-06|    0.031279|
|        9290|  4.1963e+01|  4.1963e+01|  -10.170518|  1.3425e-06|    0.031277|
|        9300|  4.1963e+01|  4.1963e+01|  -10.173020|  1.3347e-06|    0.031276|
|        9310|  4.1963e+01|  4.1963e+01|  -10.175524|  1.3271e-06|    0.031275|
|        9320|  4.1963e+01|  4.1963e+01|  -10.178030|  1.3194e-06|    0.031274|
|        9330|  4.1963e+01|  4.1963e+01|  -10.180546|  1.3118e-06|    0.031272|
|        9340|  4.1963e+01|  4.1963e+01|  -10.183068|  1.3042e-06|    0.031271|
|        9350|  4.1963e+01|  4.1963e+01|  -10.185588|  1.2967e-06|    0.031270|
|        9360|  4.1963e+01|  4.1963e+01|  -10.188103|  1.2892e-06|    0.031269|
|        9370|  4.1963e+01|  4.1963e+01|  -10.190610|  1.2818e-06|    0.031268|
|        9380|  4.1963e+01|  4.1963e+01|  -10.193113|  1.2743e-06|    0.031266|
|        9390|  4.1963e+01|  4.1963e+01|  -10.195619|  1.2669e-06|    0.031265|
|        9400|  4.1963e+01|  4.1963e+01|  -10.198134|  1.2596e-06|    0.031264|
+-----------------------------------------------------------------------+
|        File Writing Summary       |              Filename             |
+-----------------------------------------------------------------------+
|SU2 binary restart                 |restart_flow_G5.dat                |
|Paraview                           |flow_G5.vtu                        |
|Paraview surface                   |surface_flow_G5.vtu                |
+-----------------------------------------------------------------------+
+-----------------------------------------------------------------------------+
|  Inner_Iter|     Min CFL|     Max CFL|      rms[P]|  Cauchy[CD]|          CD|
+-----------------------------------------------------------------------------+
|        9410|  4.1963e+01|  4.1963e+01|  -10.200657|  1.2523e-06|    0.031263|
|        9420|  4.1963e+01|  4.1963e+01|  -10.203185|  1.2450e-06|    0.031262|
|        9430|  4.1963e+01|  4.1963e+01|  -10.205715|  1.2378e-06|    0.031260|
|        9440|  4.1963e+01|  4.1963e+01|  -10.208238|  1.2306e-06|    0.031259|
|        9450|  4.1963e+01|  4.1963e+01|  -10.210755|  1.2235e-06|    0.031258|
|        9460|  4.1963e+01|  4.1963e+01|  -10.213266|  1.2164e-06|    0.031257|
|        9470|  4.1963e+01|  4.1963e+01|  -10.215777|  1.2094e-06|    0.031256|
|        9480|  4.1963e+01|  4.1963e+01|  -10.218294|  1.2023e-06|    0.031255|
|        9490|  4.1963e+01|  4.1963e+01|  -10.220818|  1.1954e-06|    0.031254|
|        9500|  4.1963e+01|  4.1963e+01|  -10.223348|  1.1885e-06|    0.031253|
|        9510|  4.1963e+01|  4.1963e+01|  -10.225883|  1.1816e-06|    0.031252|
|        9520|  4.1963e+01|  4.1963e+01|  -10.228415|  1.1748e-06|    0.031250|
|        9530|  4.1963e+01|  4.1963e+01|  -10.230945|  1.1680e-06|    0.031249|
|        9540|  4.1963e+01|  4.1963e+01|  -10.233470|  1.1613e-06|    0.031248|
|        9550|  4.1963e+01|  4.1963e+01|  -10.235993|  1.1546e-06|    0.031247|
|        9560|  4.1963e+01|  4.1963e+01|  -10.238515|  1.1479e-06|    0.031246|
|        9570|  4.1963e+01|  4.1963e+01|  -10.241039|  1.1413e-06|    0.031245|
|        9580|  4.1963e+01|  4.1963e+01|  -10.243566|  1.1348e-06|    0.031244|
|        9590|  4.1963e+01|  4.1963e+01|  -10.246095|  1.1283e-06|    0.031243|
|        9600|  4.1963e+01|  4.1963e+01|  -10.248625|  1.1218e-06|    0.031242|
+-----------------------------------------------------------------------+
|        File Writing Summary       |              Filename             |
+-----------------------------------------------------------------------+
|SU2 binary restart                 |restart_flow_G5.dat                |
|Paraview                           |flow_G5.vtu                        |
|Paraview surface                   |surface_flow_G5.vtu                |
+-----------------------------------------------------------------------+
+-----------------------------------------------------------------------------+
|  Inner_Iter|     Min CFL|     Max CFL|      rms[P]|  Cauchy[CD]|          CD|
+-----------------------------------------------------------------------------+
|        9610|  4.1963e+01|  4.1963e+01|  -10.251155|  1.1154e-06|    0.031241|
|        9620|  4.1963e+01|  4.1963e+01|  -10.253684|  1.1090e-06|    0.031240|
|        9630|  4.1963e+01|  4.1963e+01|  -10.256211|  1.1027e-06|    0.031239|
|        9640|  4.1963e+01|  4.1963e+01|  -10.258741|  1.0964e-06|    0.031238|
|        9650|  4.1963e+01|  4.1963e+01|  -10.261260|  1.0901e-06|    0.031237|
|        9660|  4.1963e+01|  4.1963e+01|  -10.263784|  1.0839e-06|    0.031236|
|        9670|  4.1963e+01|  4.1963e+01|  -10.266303|  1.0777e-06|    0.031235|
|        9680|  4.1963e+01|  4.1963e+01|  -10.268829|  1.0716e-06|    0.031234|
|        9690|  4.1963e+01|  4.1963e+01|  -10.271349|  1.0655e-06|    0.031233|
|        9700|  4.1963e+01|  4.1963e+01|  -10.273875|  1.0594e-06|    0.031232|
|        9710|  4.1963e+01|  4.1963e+01|  -10.276403|  1.0533e-06|    0.031231|
|        9720|  4.1963e+01|  4.1963e+01|  -10.278931|  1.0473e-06|    0.031230|
|        9730|  4.1963e+01|  4.1963e+01|  -10.281459|  1.0414e-06|    0.031229|
|        9740|  4.1963e+01|  4.1963e+01|  -10.283985|  1.0354e-06|    0.031228|
|        9750|  4.1963e+01|  4.1963e+01|  -10.286511|  1.0295e-06|    0.031227|
|        9760|  4.1963e+01|  4.1963e+01|  -10.289036|  1.0236e-06|    0.031226|
|        9770|  4.1963e+01|  4.1963e+01|  -10.291559|  1.0178e-06|    0.031225|
|        9780|  4.1963e+01|  4.1963e+01|  -10.294082|  1.0120e-06|    0.031224|
|        9790|  4.1963e+01|  4.1963e+01|  -10.296604|  1.0062e-06|    0.031223|
|        9800|  4.1963e+01|  4.1963e+01|  -10.299126|  1.0004e-06|    0.031222|
+-----------------------------------------------------------------------+
|        File Writing Summary       |              Filename             |
+-----------------------------------------------------------------------+
|SU2 binary restart                 |restart_flow_G5.dat                |
|Paraview                           |flow_G5.vtu                        |
|Paraview surface                   |surface_flow_G5.vtu                |
+-----------------------------------------------------------------------+
+-----------------------------------------------------------------------------+
|  Inner_Iter|     Min CFL|     Max CFL|      rms[P]|  Cauchy[CD]|          CD|
+-----------------------------------------------------------------------------+
|        9801|  4.1963e+01|  4.1963e+01|  -10.299379|  9.9987e-07|    0.031222|

----------------------------- Solver Exit -------------------------------
All convergence criteria satisfied.
+-----------------------------------------------------------------------+
|      Convergence Field     |     Value    |   Criterion  |  Converged |
+-----------------------------------------------------------------------+
|                      rms[P]|      -10.2994|          < -9|         Yes|
|                  Cauchy[CD]|   9.99873e-07|       < 1e-06|         Yes|
+-----------------------------------------------------------------------+
-------------------------------------------------------------------------
+-----------------------------------------------------------------------+
|        File Writing Summary       |              Filename             |
+-----------------------------------------------------------------------+
|SU2 binary restart                 |restart_flow_G5.dat                |
|Paraview                           |flow_G5.vtu                        |
|Paraview surface                   |surface_flow_G5.vtu                |
+-----------------------------------------------------------------------+

------------------------- Solver Postprocessing -------------------------
Deleted CNumerics container.
Deleted CIntegration container.
Deleted CSolver container.
Deleted CIteration container.
Deleted CInterface container.
Deleted CGeometry container.
Deleted CFreeFormDefBox class.
Deleted CSurfaceMovement class.
Deleted CVolumetricMovement class.
Deleted CConfig container.
Deleted nInst container.
Deleted COutput class.
-------------------------------------------------------------------------

------------------------- Exit Success (SU2_CFD) ------------------------

