
-------------------------------------------------------------------------
|    ___ _   _ ___                                                      |
|   / __| | | |_  )   Release 7.4.0 "Blackbird"                         |
|   \__ \ |_| |/ /                                                      |
|   |___/\___//___|   Suite (Computational Fluid Dynamics Code)         |
|                                                                       |
-------------------------------------------------------------------------
| SU2 Project Website: https://su2code.github.io                        |
|                                                                       |
| The SU2 Project is maintained by the SU2 Foundation                   |
| (http://su2foundation.org)                                            |
-------------------------------------------------------------------------
| Copyright 2012-2022, SU2 Contributors                                 |
|                                                                       |
| SU2 is free software; you can redistribute it and/or                  |
| modify it under the terms of the GNU Lesser General Public            |
| License as published by the Free Software Foundation; either          |
| version 2.1 of the License, or (at your option) any later version.    |
|                                                                       |
| SU2 is distributed in the hope that it will be useful,                |
| but WITHOUT ANY WARRANTY; without even the implied warranty of        |
| MERCHANTABILITY or FITNESS FOR A PARTICULAR PURPOSE. See the GNU      |
| Lesser General Public License for more details.                       |
|                                                                       |
| You should have received a copy of the GNU Lesser General Public      |
| License along with SU2. If not, see <http://www.gnu.org/licenses/>.   |
-------------------------------------------------------------------------

Parsing config file for zone 0

----------------- Physical Case Definition ( Zone 0 ) -------------------
Incompressible RANS equations.
Turbulence model: Spalart-Allmaras-noft2
Hybrid RANS/LES: No Hybrid RANS/LES
Reading and writing binary SU2 native restart files.
Read flow solution from: ../../../O1/caseG4/cfdG4/restart_flow_G4.dat.
Non-Dimensional simulation using intialization values.
The reference area is 1 m^2.
The semi-span will be computed using the max y(3D) value.
The reference length is 1.00898 m.
Reference origin for moment evaluation is (-0.756, 0, 0).
Surface(s) where the force coefficients are evaluated: AIRFOIL.

Surface(s) plotted in the output file: AIRFOIL.
Input mesh file name: ../meshG4/meshG4.su2

--------------- Space Numerical Integration ( Zone 0 ) ------------------
Flux difference splitting (FDS) upwind scheme for the flow inviscid terms.
Second order integration in space, with slope limiter.
Venkatakrishnan slope-limiting method, with constant: 0.0672.
The reference element size is: 1. 
Average of gradients with correction (viscous flow terms).
Average of gradients with correction (viscous turbulence terms).
Gradient for upwind reconstruction: unweighted Least-Squares.
Gradient for viscous and source terms: Green-Gauss.

--------------- Time Numerical Integration  ( Zone 0 ) ------------------
Local time stepping (steady state simulation).
Euler implicit method for the flow equations.
FGMRES is used for solving the linear system.
Using a ILU(0) preconditioning.
Convergence criteria of the linear solver: 1e-06.
Max number of linear iterations: 10.
CFL adaptation. Factor down: 0.1, factor up: 1.2,
                lower limit: 1, upper limit: 1000,
                acceptable linear residual: 0.001.
Courant-Friedrichs-Lewy number:        2
Euler implicit time integration for the turbulence model.

------------------ Convergence Criteria  ( Zone 0 ) ---------------------
Maximum number of solver subiterations: 9999.
Begin convergence monitoring at iteration 10.
Residual minimum value: 1e-9.
Cauchy series min. value: 1e-06.
Number of Cauchy elements: 250.
Begin windowed time average at iteration 0.

-------------------- Output Information ( Zone 0 ) ----------------------
File writing frequency: 
+------------------------------------+
|                     File| Frequency|
+------------------------------------+
|                  RESTART|       200|
|                 PARAVIEW|       200|
|         SURFACE_PARAVIEW|       200|
+------------------------------------+
Writing the convergence history file every 1 inner iterations.
Writing the screen convergence history every 10 inner iterations.
The tabular file format is CSV (.csv).
Convergence history file name: history_G4.
Forces breakdown file name: forces_breakdown.dat.
Surface file name: surface_flow_G4.
Volume file name: flow_G4.
Restart file name: restart_flow_G4.dat.

------------- Config File Boundary Information ( Zone 0 ) ---------------
+-----------------------------------------------------------------------+
|                        Marker Type|                        Marker Name|
+-----------------------------------------------------------------------+
|                          Far-field|                           FARFIELD|
+-----------------------------------------------------------------------+
|                     Heat flux wall|                            AIRFOIL|
+-----------------------------------------------------------------------+

-------------------- Output Preprocessing ( Zone 0 ) --------------------

WARNING: SURFACE_PRESSURE_DROP can only be computed for at least 2 surfaces (outlet, inlet, ...)

Screen output fields: INNER_ITER, MIN_CFL, MAX_CFL, RMS_PRESSURE, CAUCHY_DRAG, DRAG
History output group(s): INNER_ITER, MIN_CFL, MAX_CFL, RMS_RES, LIFT, DRAG, MOMENT_Z, CAUCHY
Convergence field(s): RMS_PRESSURE, DRAG
Warning: No (valid) fields chosen for time convergence monitoring. Time convergence monitoring inactive.
Volume output fields: COORDINATES, SOLUTION, PRIMITIVE, RESIDUAL, MESH_QUALITY

------------------- Geometry Preprocessing ( Zone 0 ) -------------------
Two dimensional problem.
251057 grid points before partitioning.
249975 volume elements before partitioning.
2 surface markers.
603 boundary elements in index 0 (Marker = AIRFOIL).
1561 boundary elements in index 1 (Marker = FARFIELD).
Executing the partitioning functions.
Building the graph adjacency structure.
Calling ParMETIS... graph partitioning complete (5132 edge cuts).
Distributing ParMETIS coloring.
Rebalancing vertices.
Rebalancing volume element connectivity.
Rebalancing markers and surface elements.
261374 vertices including ghost points. 
255110 interior elements including halo cells. 
255110 quadrilaterals.
Establishing MPI communication patterns.
Setting point connectivity.
Renumbering points (Reverse Cuthill McKee Ordering).
Recomputing point connectivity.
Setting element connectivity.
Checking the numerical grid orientation.
All volume elements are correctly orientend.
There has been a re-orientation of 1092 LINE surface elements.
Identifying edges and vertices.
Setting the control volume structure.
Area of the computational grid: 103262.
Searching for the closest normal neighbors to the surfaces.
Storing a mapping from global to local point index.
Compute the surface curvature.
Max K: 5206.4. Mean K: 4.08642. Standard deviation K: 114.591.
Checking for periodicity.
Computing mesh quality statistics for the dual control volumes.
+--------------------------------------------------------------+
|           Mesh Quality Metric|        Minimum|        Maximum|
+--------------------------------------------------------------+
|    Orthogonality Angle (deg.)|        80.1093|             90|
|     CV Face Area Aspect Ratio|        1.00002|         364665|
|           CV Sub-Volume Ratio|              1|        28.3484|
+--------------------------------------------------------------+
Finding max control volume width.
Communicating number of neighbors.
Wetted area = 2.05965 m.
Area projection in the x-plane = 0.121114 m, y-plane = 1.00878 m.
Max. coordinate in the x-direction = 1.00898 m, y-direction = 0.0759843 m.
Min. coordinate in the x-direction = 6.29983e-06 m, y-direction = -0.0451339 m.
Computing wall distances.

-------------------- Solver Preprocessing ( Zone 0 ) --------------------
 Warning: There is no restart file (flow.meta).
 Computation will continue without updating metadata parameters.
Incompressible flow: rho_ref, vel_ref, and temp_ref
are based on the initial values, p_ref = rho_ref*vel_ref^2.
Force coefficients computed using initial values.
The reference area for force coeffs. is 1 m^2.
The reference length for force coeffs. is 1.00898 m.
The pressure is decomposed into thermodynamic and dynamic components.
The initial value of the dynamic pressure is 0.
Mach number: 0.0276747, computed using the Bulk modulus.
For external flows, the initial state is imposed at the far-field.
Angle of attack (deg): 14, computed using the initial velocity.
Side slip angle (deg): 0, computed using the initial velocity.
Reynolds number per meter: 594999, computed using initial values.
Reynolds number is a byproduct of inputs only (not used internally).
SI units only. The grid should be dimensional (meters).
No energy equation.

-- Models:
+------------------------------------------------------------------------------+
|          Viscosity Model|        Conductivity Model|              Fluid Model|
+------------------------------------------------------------------------------+
|       CONSTANT_VISCOSITY|          CONSTANT_PRANDTL|         CONSTANT_DENSITY|
+------------------------------------------------------------------------------+
-- Fluid properties:
+------------------------------------------------------------------------------+
|                  Name|    Dim. value|    Ref. value|      Unit|Non-dim. value|
+------------------------------------------------------------------------------+
|             Viscosity|      1.92e-05|        11.424|   N.s/m^2|   1.68067e-06|
+------------------------------------------------------------------------------+
|        Prandtl (Lam.)|             -|             -|         -|          0.72|
|       Prandtl (Turb.)|             -|             -|         -|           0.9|
+------------------------------------------------------------------------------+
|          Bulk Modulus|        142000|             1|        Pa|        142000|
+------------------------------------------------------------------------------+
-- Initial and free-stream conditions:
+------------------------------------------------------------------------------+
|                  Name|    Dim. value|    Ref. value|      Unit|Non-dim. value|
+------------------------------------------------------------------------------+
|      Dynamic Pressure|             0|       108.756|        Pa|             0|
|        Total Pressure|       54.3781|       108.756|        Pa|           0.5|
|               Density|           1.2|           1.2|    kg/m^3|             1|
|            Velocity-X|        9.2372|       9.51999|       m/s|      0.970296|
|            Velocity-Y|        2.3031|       9.51999|       m/s|      0.241923|
|    Velocity Magnitude|       9.51999|       9.51999|       m/s|             1|
+------------------------------------------------------------------------------+
|             Viscosity|      1.92e-05|        11.424|   N.s/m^2|   1.68067e-06|
|          Conductivity|             -|       3.59312|   W/m^2.K|             -|
|     Turb. Kin. Energy|       1.35945|       90.6301|   m^2/s^2|         0.015|
|     Spec. Dissipation|       8496.58|       9.51999|       1/s|       892.499|
+------------------------------------------------------------------------------+
|           Mach Number|             -|             -|         -|     0.0276747|
|       Reynolds Number|             -|             -|         -|        594999|
+------------------------------------------------------------------------------+
Initialize Jacobian structure (Navier-Stokes). MG level: 0.
Initialize Jacobian structure (SA model).

------------------- Numerics Preprocessing ( Zone 0 ) -------------------

----------------- Integration Preprocessing ( Zone 0 ) ------------------

------------------- Iteration Preprocessing ( Zone 0 ) ------------------
Euler/Navier-Stokes/RANS fluid iteration.

------------------------------ Begin Solver -----------------------------

Simulation Run using the Single-zone Driver
+-----------------------------------------------------------------------------+
|  Inner_Iter|     Min CFL|     Max CFL|      rms[P]|  Cauchy[CD]|          CD|
+-----------------------------------------------------------------------------+
|           0|  2.4000e+00|  2.4000e+00|   -6.250310|  1.0000e+00|    0.116192|
|          10|  1.4860e+01|  1.4860e+01|   -6.229406|  1.0080e-04|    0.113306|
|          20|  7.6675e+00|  7.6675e+00|   -6.503610|  1.4279e-03|    0.079508|
|          30|  4.7475e+01|  4.7475e+01|   -6.572187|  2.0916e-03|    0.062916|
|          40|  2.4496e+01|  2.4496e+01|   -6.546299|  2.1612e-03|    0.061610|
|          50|  1.2639e+01|  1.2639e+01|   -6.549877|  2.3107e-03|    0.065347|
|          60|  6.5217e+00|  6.5217e+00|   -6.494022|  2.4028e-03|    0.067648|
|          70|  4.0381e+01|  4.0381e+01|   -6.550387|  2.4144e-03|    0.067922|
|          80|  2.0836e+01|  2.0836e+01|   -6.642942|  2.4462e-03|    0.067126|
|          90|  1.0751e+01|  1.0751e+01|   -6.599359|  2.5362e-03|    0.064876|
|         100|  6.6565e+01|  6.6565e+01|   -6.646449|  2.5758e-03|    0.064817|
|         110|  3.4346e+01|  3.4346e+01|   -6.725281|  2.6400e-03|    0.066422|
|         120|  5.9350e+01|  5.9350e+01|   -6.758592|  2.7357e-03|    0.067717|
|         130|  2.1266e+01|  2.1266e+01|   -6.816853|  2.8124e-03|    0.065799|
|         140|  5.2917e+01|  5.2917e+01|   -6.847276|  2.9394e-03|    0.062624|
|         150|  2.7304e+01|  2.7304e+01|   -6.849730|  2.9629e-03|    0.062038|
|         160|  1.1740e+01|  1.1740e+01|   -6.881299|  2.9732e-03|    0.062073|
|         170|  6.0577e+00|  6.0577e+00|   -6.901275|  3.0111e-03|    0.063021|
|         180|  3.7508e+01|  3.7508e+01|   -6.882902|  3.0441e-03|    0.063846|
|         190|  1.9353e+01|  1.9353e+01|   -6.873357|  3.0802e-03|    0.064749|
|         200|  4.8157e+01|  4.8157e+01|   -6.874981|  3.1099e-03|    0.064526|
+-----------------------------------------------------------------------+
|        File Writing Summary       |              Filename             |
+-----------------------------------------------------------------------+
|SU2 binary restart                 |restart_flow_G4.dat                |
|Paraview                           |flow_G4.vtu                        |
|Paraview surface                   |surface_flow_G4.vtu                |
+-----------------------------------------------------------------------+
+-----------------------------------------------------------------------------+
|  Inner_Iter|     Min CFL|     Max CFL|      rms[P]|  Cauchy[CD]|          CD|
+-----------------------------------------------------------------------------+
|         210|  9.9859e+00|  9.9859e+00|   -6.955347|  3.1791e-03|    0.062797|
|         220|  5.1525e+00|  5.1525e+00|   -6.992665|  3.2261e-03|    0.061622|
|         230|  3.1903e+01|  3.1903e+01|   -6.977406|  3.2350e-03|    0.061399|
|         240|  7.9384e+00|  7.9384e+00|   -6.971327|  3.2614e-03|    0.062048|
|         250|  4.9153e+01|  4.9153e+01|   -6.979068|  3.2803e-03|    0.062520|
|         260|  4.9153e+01|  4.9153e+01|   -6.995719|  3.2051e-03|    0.062116|
|         270|  7.0780e+00|  7.0780e+00|   -7.028465|  1.9201e-03|    0.061064|
|         280|  4.3825e+01|  4.3825e+01|   -7.012804|  1.2683e-03|    0.060767|
|         290|  5.2590e+01|  5.2590e+01|   -7.024279|  1.2357e-03|    0.059840|
|         300|  5.2590e+01|  5.2590e+01|   -7.129015|  1.1325e-03|    0.058685|
|         310|  5.2590e+01|  5.2590e+01|   -7.109811|  1.0609e-03|    0.058174|
|         320|  9.0876e+00|  9.0876e+00|   -7.109152|  1.0569e-03|    0.057983|
|         330|  5.6268e+01|  5.6268e+01|   -7.143290|  1.0359e-03|    0.057710|
|         340|  2.9033e+01|  2.9033e+01|   -7.188867|  9.5801e-04|    0.057408|
|         350|  5.0169e+01|  5.0169e+01|   -7.212216|  9.6089e-04|    0.056347|
|         360|  2.5886e+01|  2.5886e+01|   -7.181760|  9.1057e-04|    0.056000|
|         370|  1.3357e+01|  1.3357e+01|   -7.154577|  8.3181e-04|    0.055576|
|         380|  6.8917e+00|  6.8917e+00|   -7.187435|  7.6861e-04|    0.055238|
|         390|  4.2672e+01|  4.2672e+01|   -7.238686|  6.4754e-04|    0.055090|
|         400|  5.1206e+01|  5.1206e+01|   -7.287909|  6.4186e-04|    0.054646|
+-----------------------------------------------------------------------+
|        File Writing Summary       |              Filename             |
+-----------------------------------------------------------------------+
|SU2 binary restart                 |restart_flow_G4.dat                |
|Paraview                           |flow_G4.vtu                        |
|Paraview surface                   |surface_flow_G4.vtu                |
+-----------------------------------------------------------------------+
+-----------------------------------------------------------------------------+
|  Inner_Iter|     Min CFL|     Max CFL|      rms[P]|  Cauchy[CD]|          CD|
+-----------------------------------------------------------------------------+
|         410|  5.1206e+01|  5.1206e+01|   -7.228807|  6.5903e-04|    0.053959|
|         420|  1.5290e+01|  1.5290e+01|   -7.292220|  6.3495e-04|    0.053613|
|         430|  7.8894e+00|  7.8894e+00|   -7.297735|  6.1478e-04|    0.053293|
|         440|  4.8849e+01|  4.8849e+01|   -7.352252|  5.8766e-04|    0.053067|
|         450|  4.8849e+01|  4.8849e+01|   -7.283490|  5.7744e-04|    0.052579|
|         460|  4.8849e+01|  4.8849e+01|   -7.333491|  5.2152e-04|    0.052248|
|         470|  4.8849e+01|  4.8849e+01|   -7.416476|  4.8145e-04|    0.052075|
|         480|  5.8619e+00|  5.8619e+00|   -7.363656|  4.8300e-04|    0.051813|
|         490|  3.6295e+01|  3.6295e+01|   -7.374773|  4.6104e-04|    0.051703|
|         500|  1.8727e+01|  1.8727e+01|   -7.388551|  4.4850e-04|    0.051544|
|         510|  9.6630e+00|  9.6630e+00|   -7.342449|  4.3052e-04|    0.051353|
|         520|  5.9830e+01|  5.9830e+01|   -7.371331|  3.9403e-04|    0.051213|
|         530|  3.0871e+01|  3.0871e+01|   -7.358281|  3.8511e-04|    0.051140|
|         540|  1.5929e+01|  1.5929e+01|   -7.338530|  3.5042e-04|    0.051080|
|         550|  8.2189e+00|  8.2189e+00|   -7.288790|  3.0617e-04|    0.051031|
|         560|  5.0890e+01|  5.0890e+01|   -7.381490|  2.8686e-04|    0.051002|
|         570|  2.6258e+01|  2.6258e+01|   -7.465057|  2.8028e-04|    0.050976|
|         580|  1.3548e+01|  1.3548e+01|   -7.501984|  2.7029e-04|    0.050953|
|         590|  6.9907e+00|  6.9907e+00|   -7.417358|  2.5922e-04|    0.050927|
|         600|  4.3285e+01|  4.3285e+01|   -7.447138|  2.1756e-04|    0.050908|
+-----------------------------------------------------------------------+
|        File Writing Summary       |              Filename             |
+-----------------------------------------------------------------------+
|SU2 binary restart                 |restart_flow_G4.dat                |
|Paraview                           |flow_G4.vtu                        |
|Paraview surface                   |surface_flow_G4.vtu                |
+-----------------------------------------------------------------------+
+-----------------------------------------------------------------------------+
|  Inner_Iter|     Min CFL|     Max CFL|      rms[P]|  Cauchy[CD]|          CD|
+-----------------------------------------------------------------------------+
|         610|  8.9755e+00|  8.9755e+00|   -7.382440|  2.0719e-04|    0.050820|
|         620|  5.5574e+01|  5.5574e+01|   -7.499021|  1.9252e-04|    0.050763|
|         630|  2.8675e+01|  2.8675e+01|   -7.512062|  1.8079e-04|    0.050718|
|         640|  1.4796e+01|  1.4796e+01|   -7.477738|  1.7700e-04|    0.050665|
|         650|  7.6342e+00|  7.6342e+00|   -7.403236|  1.6038e-04|    0.050636|
|         660|  4.7269e+01|  4.7269e+01|   -7.457460|  1.3326e-04|    0.050641|
|         670|  2.4390e+01|  2.4390e+01|   -7.514838|  1.2014e-04|    0.050659|
|         680|  1.2585e+01|  1.2585e+01|   -7.537722|  1.0912e-04|    0.050704|
|         690|  5.4112e+01|  5.4112e+01|   -7.482457|  1.0263e-04|    0.050768|
|         700|  5.4112e+01|  5.4112e+01|   -7.475145|  8.6677e-05|    0.050857|
|         710|  5.4112e+01|  5.4112e+01|   -7.507556|  7.5212e-05|    0.050901|
|         720|  1.6158e+01|  1.6158e+01|   -7.558536|  6.8731e-05|    0.050913|
|         730|  8.3370e+00|  8.3370e+00|   -7.480069|  5.8917e-05|    0.050929|
|         740|  5.1620e+01|  5.1620e+01|   -7.547138|  5.5395e-05|    0.050951|
|         750|  6.1945e+00|  6.1945e+00|   -7.556563|  5.2648e-05|    0.051041|
|         760|  3.8354e+01|  3.8354e+01|   -7.581197|  4.6899e-05|    0.051089|
|         770|  1.9790e+01|  1.9790e+01|   -7.586905|  4.3767e-05|    0.051151|
|         780|  4.9244e+01|  4.9244e+01|   -7.575931|  4.5646e-05|    0.051271|
|         790|  4.9244e+01|  4.9244e+01|   -7.590403|  4.8087e-05|    0.051391|
|         800|  4.9244e+01|  4.9244e+01|   -7.567294|  4.9489e-05|    0.051476|
+-----------------------------------------------------------------------+
|        File Writing Summary       |              Filename             |
+-----------------------------------------------------------------------+
|SU2 binary restart                 |restart_flow_G4.dat                |
|Paraview                           |flow_G4.vtu                        |
|Paraview surface                   |surface_flow_G4.vtu                |
+-----------------------------------------------------------------------+
+-----------------------------------------------------------------------------+
|  Inner_Iter|     Min CFL|     Max CFL|      rms[P]|  Cauchy[CD]|          CD|
+-----------------------------------------------------------------------------+
|         810|  4.9244e+01|  4.9244e+01|   -7.561991|  5.1827e-05|    0.051563|
|         820|  4.9244e+01|  4.9244e+01|   -7.558148|  5.5491e-05|    0.051681|
|         830|  4.9244e+01|  4.9244e+01|   -7.552686|  6.0361e-05|    0.051825|
|         840|  4.9244e+01|  4.9244e+01|   -7.550557|  6.4877e-05|    0.051964|
|         850|  8.5094e+00|  8.5094e+00|   -7.487703|  6.8009e-05|    0.052061|
|         860|  5.2688e+01|  5.2688e+01|   -7.544829|  6.6400e-05|    0.052109|
|         870|  2.7186e+01|  2.7186e+01|   -7.559109|  6.5317e-05|    0.052139|
|         880|  1.4027e+01|  1.4027e+01|   -7.566371|  6.5405e-05|    0.052186|
|         890|  6.0314e+00|  6.0314e+00|   -7.528151|  6.6020e-05|    0.052255|
|         900|  3.7345e+01|  3.7345e+01|   -7.556022|  6.6240e-05|    0.052289|
|         910|  1.9269e+01|  1.9269e+01|   -7.567859|  6.7729e-05|    0.052335|
|         920|  9.9425e+00|  9.9425e+00|   -7.509457|  6.9436e-05|    0.052395|
|         930|  6.1561e+01|  6.1561e+01|   -7.547325|  7.0004e-05|    0.052455|
|         940|  3.1764e+01|  3.1764e+01|   -7.565882|  6.9075e-05|    0.052495|
|         950|  1.6390e+01|  1.6390e+01|   -7.568493|  6.7419e-05|    0.052542|
|         960|  8.4567e+00|  8.4567e+00|   -7.487728|  6.7759e-05|    0.052595|
|         970|  5.2362e+01|  5.2362e+01|   -7.532395|  6.8852e-05|    0.052634|
|         980|  2.7018e+01|  2.7018e+01|   -7.540180|  6.9514e-05|    0.052667|
|         990|  1.3940e+01|  1.3940e+01|   -7.544104|  7.0146e-05|    0.052705|
|        1000|  7.1930e+00|  7.1930e+00|   -7.511800|  6.8228e-05|    0.052747|
+-----------------------------------------------------------------------+
|        File Writing Summary       |              Filename             |
+-----------------------------------------------------------------------+
|SU2 binary restart                 |restart_flow_G4.dat                |
|Paraview                           |flow_G4.vtu                        |
|Paraview surface                   |surface_flow_G4.vtu                |
+-----------------------------------------------------------------------+
+-----------------------------------------------------------------------------+
|  Inner_Iter|     Min CFL|     Max CFL|      rms[P]|  Cauchy[CD]|          CD|
+-----------------------------------------------------------------------------+
|        1010|  4.4537e+01|  4.4537e+01|   -7.536088|  6.7378e-05|    0.052773|
|        1020|  2.2980e+01|  2.2980e+01|   -7.549291|  6.6222e-05|    0.052806|
|        1030|  5.7182e+01|  5.7182e+01|   -7.524538|  6.3902e-05|    0.052868|
|        1040|  5.7182e+01|  5.7182e+01|   -7.522242|  6.1865e-05|    0.052938|
|        1050|  5.7182e+01|  5.7182e+01|   -7.527693|  6.0677e-05|    0.052993|
|        1060|  5.7182e+01|  5.7182e+01|   -7.544331|  5.8841e-05|    0.053034|
|        1070|  5.7182e+01|  5.7182e+01|   -7.570194|  5.5216e-05|    0.053061|
|        1080|  5.7182e+01|  5.7182e+01|   -7.596297|  5.0222e-05|    0.053081|
|        1090|  5.7182e+01|  5.7182e+01|   -7.617954|  4.5226e-05|    0.053094|
|        1100|  5.7182e+01|  5.7182e+01|   -7.635488|  4.1503e-05|    0.053096|
|        1110|  5.7182e+01|  5.7182e+01|   -7.650011|  4.0211e-05|    0.053080|
|        1120|  5.7182e+01|  5.7182e+01|   -7.661436|  4.0201e-05|    0.053051|
|        1130|  5.7182e+01|  5.7182e+01|   -7.668264|  3.9801e-05|    0.053014|
|        1140|  5.7182e+01|  5.7182e+01|   -7.669254|  3.8747e-05|    0.052971|
|        1150|  5.7182e+01|  5.7182e+01|   -7.666352|  3.9562e-05|    0.052917|
|        1160|  5.7182e+01|  5.7182e+01|   -7.664144|  4.0570e-05|    0.052846|
|        1170|  5.7182e+01|  5.7182e+01|   -7.664678|  4.1460e-05|    0.052763|
|        1180|  5.7182e+01|  5.7182e+01|   -7.666191|  4.2647e-05|    0.052674|
|        1190|  5.7182e+01|  5.7182e+01|   -7.666751|  4.4853e-05|    0.052579|
|        1200|  1.7074e+01|  1.7074e+01|   -7.706790|  4.5495e-05|    0.052515|
+-----------------------------------------------------------------------+
|        File Writing Summary       |              Filename             |
+-----------------------------------------------------------------------+
|SU2 binary restart                 |restart_flow_G4.dat                |
|Paraview                           |flow_G4.vtu                        |
|Paraview surface                   |surface_flow_G4.vtu                |
+-----------------------------------------------------------------------+
+-----------------------------------------------------------------------------+
|  Inner_Iter|     Min CFL|     Max CFL|      rms[P]|  Cauchy[CD]|          CD|
+-----------------------------------------------------------------------------+
|        1210|  8.8100e+00|  8.8100e+00|   -7.646553|  4.5643e-05|    0.052458|
|        1220|  5.4549e+01|  5.4549e+01|   -7.690732|  4.5953e-05|    0.052412|
|        1230|  2.8146e+01|  2.8146e+01|   -7.704913|  4.6539e-05|    0.052364|
|        1240|  1.0085e+01|  1.0085e+01|   -7.654745|  4.8525e-05|    0.052277|
|        1250|  6.2446e+01|  6.2446e+01|   -7.693996|  4.9225e-05|    0.052217|
|        1260|  3.2221e+01|  3.2221e+01|   -7.708565|  4.9975e-05|    0.052172|
|        1270|  1.6625e+01|  1.6625e+01|   -7.714453|  5.1317e-05|    0.052106|
|        1280|  7.1485e+00|  7.1485e+00|   -7.687557|  5.2638e-05|    0.052011|
|        1290|  4.4262e+01|  4.4262e+01|   -7.704941|  5.1674e-05|    0.051965|
|        1300|  2.2838e+01|  2.2838e+01|   -7.712192|  5.1889e-05|    0.051905|
|        1310|  1.1784e+01|  1.1784e+01|   -7.686811|  5.3489e-05|    0.051824|
|        1320|  6.0802e+01|  6.0802e+01|   -7.699684|  5.5562e-05|    0.051744|
|        1330|  2.1787e+01|  2.1787e+01|   -7.710869|  5.8234e-05|    0.051658|
|        1340|  1.1241e+01|  1.1241e+01|   -7.689075|  6.0925e-05|    0.051577|
|        1350|  6.9604e+01|  6.9604e+01|   -7.704802|  6.3878e-05|    0.051499|
|        1360|  3.5914e+01|  3.5914e+01|   -7.712847|  6.5606e-05|    0.051440|
|        1370|  1.0724e+01|  1.0724e+01|   -7.682095|  6.9450e-05|    0.051314|
|        1380|  6.6399e+01|  6.6399e+01|   -7.710313|  7.1053e-05|    0.051237|
|        1390|  3.4261e+01|  3.4261e+01|   -7.719282|  7.1670e-05|    0.051179|
|        1400|  1.7678e+01|  1.7678e+01|   -7.717037|  7.2893e-05|    0.051094|
+-----------------------------------------------------------------------+
|        File Writing Summary       |              Filename             |
+-----------------------------------------------------------------------+
|SU2 binary restart                 |restart_flow_G4.dat                |
|Paraview                           |flow_G4.vtu                        |
|Paraview surface                   |surface_flow_G4.vtu                |
+-----------------------------------------------------------------------+
+-----------------------------------------------------------------------------+
|  Inner_Iter|     Min CFL|     Max CFL|      rms[P]|  Cauchy[CD]|          CD|
+-----------------------------------------------------------------------------+
|        1410|  6.3342e+01|  6.3342e+01|   -7.715644|  7.4669e-05|    0.050979|
|        1420|  6.3342e+01|  6.3342e+01|   -7.721436|  7.8455e-05|    0.050802|
|        1430|  6.3342e+01|  6.3342e+01|   -7.735497|  8.1986e-05|    0.050625|
|        1440|  6.3342e+01|  6.3342e+01|   -7.755270|  8.5077e-05|    0.050452|
|        1450|  6.3342e+01|  6.3342e+01|   -7.781447|  8.9392e-05|    0.050280|
|        1460|  6.3342e+01|  6.3342e+01|   -7.813065|  9.3876e-05|    0.050112|
|        1470|  6.3342e+01|  6.3342e+01|   -7.848437|  9.8677e-05|    0.049945|
|        1480|  6.3342e+01|  6.3342e+01|   -7.886853|  1.0333e-04|    0.049781|
|        1490|  2.2697e+01|  2.2697e+01|   -7.928164|  1.0261e-04|    0.049711|
|        1500|  1.1711e+01|  1.1711e+01|   -7.909836|  1.0340e-04|    0.049632|
|        1510|  6.0426e+01|  6.0426e+01|   -7.959674|  1.0457e-04|    0.049558|
|        1520|  6.0426e+01|  6.0426e+01|   -7.986750|  1.0779e-04|    0.049411|
|        1530|  6.0426e+01|  6.0426e+01|   -8.011013|  1.0991e-04|    0.049263|
|        1540|  6.0426e+01|  6.0426e+01|   -8.027768|  1.1380e-04|    0.049120|
|        1550|  6.0426e+01|  6.0426e+01|   -8.031366|  1.1698e-04|    0.048980|
|        1560|  6.0426e+01|  6.0426e+01|   -8.026230|  1.1922e-04|    0.048843|
|        1570|  7.2512e+01|  7.2512e+01|   -8.014962|  1.2144e-04|    0.048708|
|        1580|  3.7414e+01|  3.7414e+01|   -8.064933|  1.2002e-04|    0.048658|
|        1590|  1.9305e+01|  1.9305e+01|   -8.070139|  1.1913e-04|    0.048599|
|        1600|  9.9610e+00|  9.9610e+00|   -7.970979|  1.1893e-04|    0.048526|
+-----------------------------------------------------------------------+
|        File Writing Summary       |              Filename             |
+-----------------------------------------------------------------------+
|SU2 binary restart                 |restart_flow_G4.dat                |
|Paraview                           |flow_G4.vtu                        |
|Paraview surface                   |surface_flow_G4.vtu                |
+-----------------------------------------------------------------------+
+-----------------------------------------------------------------------------+
|  Inner_Iter|     Min CFL|     Max CFL|      rms[P]|  Cauchy[CD]|          CD|
+-----------------------------------------------------------------------------+
|        1610|  6.1676e+01|  6.1676e+01|   -8.025478|  1.1884e-04|    0.048469|
|        1620|  6.1676e+01|  6.1676e+01|   -7.983429|  1.1917e-04|    0.048335|
|        1630|  2.2099e+01|  2.2099e+01|   -8.011605|  1.1907e-04|    0.048261|
|        1640|  1.1403e+01|  1.1403e+01|   -7.965539|  1.1945e-04|    0.048193|
|        1650|  7.0603e+01|  7.0603e+01|   -7.980477|  1.1860e-04|    0.048129|
|        1660|  3.6430e+01|  3.6430e+01|   -7.989796|  1.1589e-04|    0.048082|
|        1670|  6.2951e+01|  6.2951e+01|   -7.951025|  1.1368e-04|    0.047960|
|        1680|  6.2951e+01|  6.2951e+01|   -7.940951|  1.1213e-04|    0.047821|
|        1690|  6.2951e+01|  6.2951e+01|   -7.936781|  1.1067e-04|    0.047685|
|        1700|  6.2951e+01|  6.2951e+01|   -7.940411|  1.0926e-04|    0.047549|
|        1710|  6.2951e+01|  6.2951e+01|   -7.950313|  1.0794e-04|    0.047413|
|        1720|  6.2951e+01|  6.2951e+01|   -7.965447|  1.0666e-04|    0.047279|
|        1730|  6.2951e+01|  6.2951e+01|   -7.985719|  1.0552e-04|    0.047143|
|        1740|  6.2951e+01|  6.2951e+01|   -8.010717|  1.0812e-04|    0.047008|
|        1750|  2.7068e+01|  2.7068e+01|   -8.048094|  1.0692e-04|    0.046959|
|        1760|  1.3966e+01|  1.3966e+01|   -8.049527|  1.0651e-04|    0.046895|
|        1770|  6.0053e+01|  6.0053e+01|   -8.065647|  1.0351e-04|    0.046823|
|        1780|  6.0053e+01|  6.0053e+01|   -8.098785|  1.0252e-04|    0.046700|
|        1790|  6.0053e+01|  6.0053e+01|   -8.128148|  1.0180e-04|    0.046575|
|        1800|  6.0053e+01|  6.0053e+01|   -8.162740|  1.0107e-04|    0.046453|
+-----------------------------------------------------------------------+
|        File Writing Summary       |              Filename             |
+-----------------------------------------------------------------------+
|SU2 binary restart                 |restart_flow_G4.dat                |
|Paraview                           |flow_G4.vtu                        |
|Paraview surface                   |surface_flow_G4.vtu                |
+-----------------------------------------------------------------------+
+-----------------------------------------------------------------------------+
|  Inner_Iter|     Min CFL|     Max CFL|      rms[P]|  Cauchy[CD]|          CD|
+-----------------------------------------------------------------------------+
|        1810|  6.0053e+01|  6.0053e+01|   -8.194234|  1.0031e-04|    0.046335|
|        1820|  6.0053e+01|  6.0053e+01|   -8.218761|  9.9525e-05|    0.046220|
|        1830|  6.0053e+01|  6.0053e+01|   -8.234091|  1.0200e-04|    0.046108|
|        1840|  6.0053e+01|  6.0053e+01|   -8.241823|  1.0413e-04|    0.045996|
|        1850|  6.0053e+01|  6.0053e+01|   -8.242563|  1.0558e-04|    0.045886|
|        1860|  6.0053e+01|  6.0053e+01|   -8.237454|  1.0757e-04|    0.045780|
|        1870|  6.0053e+01|  6.0053e+01|   -8.230910|  1.0637e-04|    0.045676|
|        1880|  6.0053e+01|  6.0053e+01|   -8.225619|  1.0753e-04|    0.045573|
|        1890|  8.6476e+00|  8.6476e+00|   -8.201573|  1.0818e-04|    0.045489|
|        1900|  5.3544e+01|  5.3544e+01|   -8.243763|  1.0717e-04|    0.045450|
|        1910|  2.7627e+01|  2.7627e+01|   -8.251555|  1.0678e-04|    0.045413|
|        1920|  5.7288e+01|  5.7288e+01|   -8.229277|  1.0506e-04|    0.045333|
|        1930|  5.7288e+01|  5.7288e+01|   -8.232843|  1.0330e-04|    0.045239|
|        1940|  5.7288e+01|  5.7288e+01|   -8.233985|  1.0166e-04|    0.045144|
|        1950|  5.7288e+01|  5.7288e+01|   -8.240595|  9.9940e-05|    0.045050|
|        1960|  5.7288e+01|  5.7288e+01|   -8.249690|  9.8198e-05|    0.044958|
|        1970|  5.7288e+01|  5.7288e+01|   -8.259727|  9.6484e-05|    0.044867|
|        1980|  6.8746e+00|  6.8746e+00|   -8.270474|  9.4389e-05|    0.044784|
|        1990|  4.2565e+01|  4.2565e+01|   -8.302425|  9.0175e-05|    0.044754|
|        2000|  2.1963e+01|  2.1963e+01|   -8.308942|  8.9715e-05|    0.044716|
+-----------------------------------------------------------------------+
|        File Writing Summary       |              Filename             |
+-----------------------------------------------------------------------+
|SU2 binary restart                 |restart_flow_G4.dat                |
|Paraview                           |flow_G4.vtu                        |
|Paraview surface                   |surface_flow_G4.vtu                |
+-----------------------------------------------------------------------+
+-----------------------------------------------------------------------------+
|  Inner_Iter|     Min CFL|     Max CFL|      rms[P]|  Cauchy[CD]|          CD|
+-----------------------------------------------------------------------------+
|        2010|  5.4651e+01|  5.4651e+01|   -8.296090|  8.9902e-05|    0.044648|
|        2020|  5.4651e+01|  5.4651e+01|   -8.310812|  9.0491e-05|    0.044561|
|        2030|  5.4651e+01|  5.4651e+01|   -8.315438|  8.9066e-05|    0.044473|
|        2040|  5.4651e+01|  5.4651e+01|   -8.326132|  8.7521e-05|    0.044387|
|        2050|  5.4651e+01|  5.4651e+01|   -8.334621|  8.6100e-05|    0.044301|
|        2060|  5.4651e+01|  5.4651e+01|   -8.341379|  8.4805e-05|    0.044215|
|        2070|  5.4651e+01|  5.4651e+01|   -8.346903|  8.3592e-05|    0.044131|
|        2080|  5.4651e+01|  5.4651e+01|   -8.351671|  8.2486e-05|    0.044045|
|        2090|  5.4651e+01|  5.4651e+01|   -8.354659|  8.1426e-05|    0.043960|
|        2100|  5.4651e+01|  5.4651e+01|   -8.356404|  8.0435e-05|    0.043876|
|        2110|  1.3599e+01|  1.3599e+01|   -8.386487|  7.8119e-05|    0.043827|
|        2120|  7.0167e+00|  7.0167e+00|   -8.363723|  7.5741e-05|    0.043782|
|        2130|  4.3445e+01|  4.3445e+01|   -8.385908|  7.2724e-05|    0.043754|
|        2140|  5.2135e+01|  5.2135e+01|   -8.364820|  7.2422e-05|    0.043678|
|        2150|  5.2135e+01|  5.2135e+01|   -8.366468|  7.4060e-05|    0.043598|
|        2160|  5.2135e+01|  5.2135e+01|   -8.367116|  7.5774e-05|    0.043518|
|        2170|  5.2135e+01|  5.2135e+01|   -8.369918|  7.5762e-05|    0.043439|
|        2180|  5.2135e+01|  5.2135e+01|   -8.373323|  7.5128e-05|    0.043361|
|        2190|  5.2135e+01|  5.2135e+01|   -8.378771|  7.4444e-05|    0.043283|
|        2200|  5.2135e+01|  5.2135e+01|   -8.385958|  7.3824e-05|    0.043205|
+-----------------------------------------------------------------------+
|        File Writing Summary       |              Filename             |
+-----------------------------------------------------------------------+
|SU2 binary restart                 |restart_flow_G4.dat                |
|Paraview                           |flow_G4.vtu                        |
|Paraview surface                   |surface_flow_G4.vtu                |
+-----------------------------------------------------------------------+
+-----------------------------------------------------------------------------+
|  Inner_Iter|     Min CFL|     Max CFL|      rms[P]|  Cauchy[CD]|          CD|
+-----------------------------------------------------------------------------+
|        2210|  5.2135e+01|  5.2135e+01|   -8.394547|  7.3267e-05|    0.043127|
|        2220|  2.2417e+01|  2.2417e+01|   -8.422831|  7.0771e-05|    0.043097|
|        2230|  1.1567e+01|  1.1567e+01|   -8.420224|  6.8986e-05|    0.043059|
|        2240|  4.9734e+01|  4.9734e+01|   -8.416917|  6.9526e-05|    0.043016|
|        2250|  4.9734e+01|  4.9734e+01|   -8.423673|  7.0929e-05|    0.042943|
|        2260|  4.9734e+01|  4.9734e+01|   -8.431773|  7.1144e-05|    0.042869|
|        2270|  4.9734e+01|  4.9734e+01|   -8.438354|  7.0655e-05|    0.042795|
|        2280|  4.9734e+01|  4.9734e+01|   -8.445646|  7.0112e-05|    0.042721|
|        2290|  4.9734e+01|  4.9734e+01|   -8.451587|  6.9584e-05|    0.042647|
|        2300|  4.9734e+01|  4.9734e+01|   -8.455852|  6.9065e-05|    0.042574|
|        2310|  4.9734e+01|  4.9734e+01|   -8.458873|  6.8539e-05|    0.042502|
|        2320|  4.9734e+01|  4.9734e+01|   -8.461379|  6.8059e-05|    0.042429|
|        2330|  4.9734e+01|  4.9734e+01|   -8.463473|  6.7578e-05|    0.042356|
|        2340|  4.9734e+01|  4.9734e+01|   -8.464627|  6.7060e-05|    0.042284|
|        2350|  4.9734e+01|  4.9734e+01|   -8.465305|  6.6536e-05|    0.042212|
|        2360|  4.9734e+01|  4.9734e+01|   -8.466345|  6.7443e-05|    0.042141|
|        2370|  4.9734e+01|  4.9734e+01|   -8.467994|  6.8479e-05|    0.042070|
|        2380|  4.9734e+01|  4.9734e+01|   -8.469891|  7.0189e-05|    0.042000|
|        2390|  4.9734e+01|  4.9734e+01|   -8.472080|  6.9939e-05|    0.041930|
|        2400|  4.9734e+01|  4.9734e+01|   -8.474954|  6.9534e-05|    0.041860|
+-----------------------------------------------------------------------+
|        File Writing Summary       |              Filename             |
+-----------------------------------------------------------------------+
|SU2 binary restart                 |restart_flow_G4.dat                |
|Paraview                           |flow_G4.vtu                        |
|Paraview surface                   |surface_flow_G4.vtu                |
+-----------------------------------------------------------------------+
+-----------------------------------------------------------------------------+
|  Inner_Iter|     Min CFL|     Max CFL|      rms[P]|  Cauchy[CD]|          CD|
+-----------------------------------------------------------------------------+
|        2410|  1.2376e+01|  1.2376e+01|   -8.503362|  6.7922e-05|    0.041820|
|        2420|  6.3855e+00|  6.3855e+00|   -8.483075|  6.6242e-05|    0.041783|
|        2430|  3.9537e+01|  3.9537e+01|   -8.504911|  6.4025e-05|    0.041760|
|        2440|  4.7445e+01|  4.7445e+01|   -8.491480|  6.3410e-05|    0.041697|
|        2450|  4.7445e+01|  4.7445e+01|   -8.497193|  6.2890e-05|    0.041633|
|        2460|  4.7445e+01|  4.7445e+01|   -8.500367|  6.2359e-05|    0.041568|
|        2470|  4.7445e+01|  4.7445e+01|   -8.506197|  6.3774e-05|    0.041503|
|        2480|  4.7445e+01|  4.7445e+01|   -8.511740|  6.4786e-05|    0.041439|
|        2490|  4.7445e+01|  4.7445e+01|   -8.518474|  6.5596e-05|    0.041376|
|        2500|  4.7445e+01|  4.7445e+01|   -8.525336|  6.5192e-05|    0.041313|
|        2510|  4.7445e+01|  4.7445e+01|   -8.532419|  6.4723e-05|    0.041251|
|        2520|  4.7445e+01|  4.7445e+01|   -8.539522|  6.4245e-05|    0.041189|
|        2530|  4.7445e+01|  4.7445e+01|   -8.546367|  6.3779e-05|    0.041126|
|        2540|  4.7445e+01|  4.7445e+01|   -8.552628|  6.3314e-05|    0.041064|
|        2550|  4.7445e+01|  4.7445e+01|   -8.558596|  6.2853e-05|    0.041003|
|        2560|  4.7445e+01|  4.7445e+01|   -8.564230|  6.2406e-05|    0.040942|
|        2570|  4.7445e+01|  4.7445e+01|   -8.569147|  6.1938e-05|    0.040881|
|        2580|  4.7445e+01|  4.7445e+01|   -8.573155|  6.1450e-05|    0.040820|
|        2590|  4.7445e+01|  4.7445e+01|   -8.576487|  6.0974e-05|    0.040759|
|        2600|  4.7445e+01|  4.7445e+01|   -8.579076|  6.0517e-05|    0.040699|
+-----------------------------------------------------------------------+
|        File Writing Summary       |              Filename             |
+-----------------------------------------------------------------------+
|SU2 binary restart                 |restart_flow_G4.dat                |
|Paraview                           |flow_G4.vtu                        |
|Paraview surface                   |surface_flow_G4.vtu                |
+-----------------------------------------------------------------------+
+-----------------------------------------------------------------------------+
|  Inner_Iter|     Min CFL|     Max CFL|      rms[P]|  Cauchy[CD]|          CD|
+-----------------------------------------------------------------------------+
|        2610|  2.0400e+01|  2.0400e+01|   -8.607221|  5.8564e-05|    0.040677|
|        2620|  1.0526e+01|  1.0526e+01|   -8.597645|  5.6909e-05|    0.040648|
|        2630|  4.5260e+01|  4.5260e+01|   -8.591058|  5.5404e-05|    0.040615|
|        2640|  4.5260e+01|  4.5260e+01|   -8.588288|  5.4831e-05|    0.040559|
|        2650|  4.5260e+01|  4.5260e+01|   -8.589895|  5.4307e-05|    0.040502|
|        2660|  4.5260e+01|  4.5260e+01|   -8.590035|  5.4974e-05|    0.040446|
|        2670|  4.5260e+01|  4.5260e+01|   -8.590605|  5.5736e-05|    0.040390|
|        2680|  4.5260e+01|  4.5260e+01|   -8.590721|  5.7040e-05|    0.040334|
|        2690|  4.5260e+01|  4.5260e+01|   -8.591728|  5.6735e-05|    0.040279|
|        2700|  4.5260e+01|  4.5260e+01|   -8.593037|  5.6328e-05|    0.040224|
|        2710|  4.5260e+01|  4.5260e+01|   -8.594464|  5.5900e-05|    0.040170|
|        2720|  4.5260e+01|  4.5260e+01|   -8.596230|  5.5493e-05|    0.040116|
|        2730|  4.5260e+01|  4.5260e+01|   -8.598377|  5.5107e-05|    0.040062|
|        2740|  4.5260e+01|  4.5260e+01|   -8.600542|  5.4721e-05|    0.040008|
|        2750|  4.5260e+01|  4.5260e+01|   -8.602774|  5.4339e-05|    0.039955|
|        2760|  4.5260e+01|  4.5260e+01|   -8.605292|  5.3959e-05|    0.039902|
|        2770|  4.5260e+01|  4.5260e+01|   -8.608041|  5.3561e-05|    0.039850|
|        2780|  4.5260e+01|  4.5260e+01|   -8.610717|  5.3161e-05|    0.039797|
|        2790|  4.5260e+01|  4.5260e+01|   -8.613225|  5.2771e-05|    0.039745|
|        2800|  4.5260e+01|  4.5260e+01|   -8.615622|  5.2383e-05|    0.039693|
+-----------------------------------------------------------------------+
|        File Writing Summary       |              Filename             |
+-----------------------------------------------------------------------+
|SU2 binary restart                 |restart_flow_G4.dat                |
|Paraview                           |flow_G4.vtu                        |
|Paraview surface                   |surface_flow_G4.vtu                |
+-----------------------------------------------------------------------+
+-----------------------------------------------------------------------------+
|  Inner_Iter|     Min CFL|     Max CFL|      rms[P]|  Cauchy[CD]|          CD|
+-----------------------------------------------------------------------------+
|        2810|  4.5260e+01|  4.5260e+01|   -8.618096|  5.1990e-05|    0.039642|
|        2820|  4.5260e+01|  4.5260e+01|   -8.620732|  5.1593e-05|    0.039591|
|        2830|  4.5260e+01|  4.5260e+01|   -8.623457|  5.1195e-05|    0.039540|
|        2840|  4.5260e+01|  4.5260e+01|   -8.626109|  5.0801e-05|    0.039489|
|        2850|  4.5260e+01|  4.5260e+01|   -8.628672|  5.0409e-05|    0.039439|
|        2860|  4.5260e+01|  4.5260e+01|   -8.631119|  5.1521e-05|    0.039389|
|        2870|  4.5260e+01|  4.5260e+01|   -8.633581|  5.2331e-05|    0.039339|
|        2880|  4.5260e+01|  4.5260e+01|   -8.636221|  5.2993e-05|    0.039290|
|        2890|  4.5260e+01|  4.5260e+01|   -8.639053|  5.2732e-05|    0.039241|
|        2900|  4.5260e+01|  4.5260e+01|   -8.641923|  5.2435e-05|    0.039192|
|        2910|  4.5260e+01|  4.5260e+01|   -8.644673|  5.2125e-05|    0.039143|
|        2920|  4.5260e+01|  4.5260e+01|   -8.647308|  5.1816e-05|    0.039094|
|        2930|  4.5260e+01|  4.5260e+01|   -8.650045|  5.1518e-05|    0.039046|
|        2940|  4.5260e+01|  4.5260e+01|   -8.652974|  5.1227e-05|    0.038998|
|        2950|  4.5260e+01|  4.5260e+01|   -8.656008|  5.0944e-05|    0.038951|
|        2960|  4.5260e+01|  4.5260e+01|   -8.659027|  5.0664e-05|    0.038903|
|        2970|  4.5260e+01|  4.5260e+01|   -8.661998|  5.0371e-05|    0.038856|
|        2980|  4.5260e+01|  4.5260e+01|   -8.664981|  5.0073e-05|    0.038810|
|        2990|  4.5260e+01|  4.5260e+01|   -8.668072|  4.9786e-05|    0.038763|
|        3000|  4.5260e+01|  4.5260e+01|   -8.671303|  4.9507e-05|    0.038717|
+-----------------------------------------------------------------------+
|        File Writing Summary       |              Filename             |
+-----------------------------------------------------------------------+
|SU2 binary restart                 |restart_flow_G4.dat                |
|Paraview                           |flow_G4.vtu                        |
|Paraview surface                   |surface_flow_G4.vtu                |
+-----------------------------------------------------------------------+
+-----------------------------------------------------------------------------+
|  Inner_Iter|     Min CFL|     Max CFL|      rms[P]|  Cauchy[CD]|          CD|
+-----------------------------------------------------------------------------+
|        3010|  4.5260e+01|  4.5260e+01|   -8.674584|  4.9230e-05|    0.038671|
|        3020|  4.5260e+01|  4.5260e+01|   -8.677746|  4.8952e-05|    0.038626|
|        3030|  4.5260e+01|  4.5260e+01|   -8.680757|  4.8670e-05|    0.038580|
|        3040|  4.5260e+01|  4.5260e+01|   -8.683662|  4.8389e-05|    0.038535|
|        3050|  4.5260e+01|  4.5260e+01|   -8.686500|  4.8111e-05|    0.038491|
|        3060|  9.3852e+00|  9.3852e+00|   -8.698031|  4.7222e-05|    0.038461|
|        3070|  4.8426e+00|  4.8426e+00|   -8.698619|  4.6157e-05|    0.038437|
|        3080|  2.9984e+01|  2.9984e+01|   -8.713161|  4.4618e-05|    0.038424|
|        3090|  4.3177e+01|  4.3177e+01|   -8.697679|  4.4160e-05|    0.038385|
|        3100|  4.3177e+01|  4.3177e+01|   -8.699796|  4.3814e-05|    0.038344|
|        3110|  4.3177e+01|  4.3177e+01|   -8.701404|  4.3477e-05|    0.038302|
|        3120|  4.3177e+01|  4.3177e+01|   -8.703247|  4.3151e-05|    0.038261|
|        3130|  4.3177e+01|  4.3177e+01|   -8.705006|  4.2827e-05|    0.038219|
|        3140|  4.3177e+01|  4.3177e+01|   -8.706340|  4.2494e-05|    0.038178|
|        3150|  4.3177e+01|  4.3177e+01|   -8.707865|  4.2157e-05|    0.038138|
|        3160|  4.3177e+01|  4.3177e+01|   -8.709365|  4.1816e-05|    0.038097|
|        3170|  4.3177e+01|  4.3177e+01|   -8.710701|  4.1479e-05|    0.038057|
|        3180|  4.3177e+01|  4.3177e+01|   -8.712201|  4.1157e-05|    0.038017|
|        3190|  4.3177e+01|  4.3177e+01|   -8.713786|  4.0840e-05|    0.037977|
|        3200|  4.3177e+01|  4.3177e+01|   -8.715161|  4.0521e-05|    0.037938|
+-----------------------------------------------------------------------+
|        File Writing Summary       |              Filename             |
+-----------------------------------------------------------------------+
|SU2 binary restart                 |restart_flow_G4.dat                |
|Paraview                           |flow_G4.vtu                        |
|Paraview surface                   |surface_flow_G4.vtu                |
+-----------------------------------------------------------------------+
+-----------------------------------------------------------------------------+
|  Inner_Iter|     Min CFL|     Max CFL|      rms[P]|  Cauchy[CD]|          CD|
+-----------------------------------------------------------------------------+
|        3210|  4.3177e+01|  4.3177e+01|   -8.716329|  4.0203e-05|    0.037898|
|        3220|  4.3177e+01|  4.3177e+01|   -8.717582|  3.9885e-05|    0.037859|
|        3230|  4.3177e+01|  4.3177e+01|   -8.719069|  3.9570e-05|    0.037821|
|        3240|  4.3177e+01|  4.3177e+01|   -8.720659|  3.9260e-05|    0.037782|
|        3250|  4.3177e+01|  4.3177e+01|   -8.722202|  3.8951e-05|    0.037743|
|        3260|  4.3177e+01|  4.3177e+01|   -8.723674|  3.8642e-05|    0.037705|
|        3270|  4.3177e+01|  4.3177e+01|   -8.725100|  3.8334e-05|    0.037667|
|        3280|  4.3177e+01|  4.3177e+01|   -8.726670|  3.8030e-05|    0.037630|
|        3290|  4.3177e+01|  4.3177e+01|   -8.728495|  3.7729e-05|    0.037592|
|        3300|  4.3177e+01|  4.3177e+01|   -8.730537|  3.7433e-05|    0.037555|
|        3310|  4.3177e+01|  4.3177e+01|   -8.732577|  3.7753e-05|    0.037518|
|        3320|  4.3177e+01|  4.3177e+01|   -8.734496|  3.8249e-05|    0.037481|
|        3330|  4.3177e+01|  4.3177e+01|   -8.736343|  3.9219e-05|    0.037444|
|        3340|  4.3177e+01|  4.3177e+01|   -8.738272|  3.9112e-05|    0.037407|
|        3350|  4.3177e+01|  4.3177e+01|   -8.740428|  3.8896e-05|    0.037371|
|        3360|  4.3177e+01|  4.3177e+01|   -8.742757|  3.8676e-05|    0.037335|
|        3370|  4.3177e+01|  4.3177e+01|   -8.745075|  3.8446e-05|    0.037299|
|        3380|  4.3177e+01|  4.3177e+01|   -8.747268|  3.8215e-05|    0.037264|
|        3390|  4.3177e+01|  4.3177e+01|   -8.749403|  3.7994e-05|    0.037228|
|        3400|  4.3177e+01|  4.3177e+01|   -8.751633|  3.7779e-05|    0.037193|
+-----------------------------------------------------------------------+
|        File Writing Summary       |              Filename             |
+-----------------------------------------------------------------------+
|SU2 binary restart                 |restart_flow_G4.dat                |
|Paraview                           |flow_G4.vtu                        |
|Paraview surface                   |surface_flow_G4.vtu                |
+-----------------------------------------------------------------------+
+-----------------------------------------------------------------------------+
|  Inner_Iter|     Min CFL|     Max CFL|      rms[P]|  Cauchy[CD]|          CD|
+-----------------------------------------------------------------------------+
|        3410|  4.3177e+01|  4.3177e+01|   -8.754031|  3.7571e-05|    0.037158|
|        3420|  4.3177e+01|  4.3177e+01|   -8.756490|  3.7362e-05|    0.037123|
|        3430|  4.3177e+01|  4.3177e+01|   -8.758846|  3.7143e-05|    0.037089|
|        3440|  4.3177e+01|  4.3177e+01|   -8.761057|  3.6923e-05|    0.037054|
|        3450|  4.3177e+01|  4.3177e+01|   -8.763173|  3.6709e-05|    0.037020|
|        3460|  4.3177e+01|  4.3177e+01|   -8.765364|  3.6500e-05|    0.036986|
|        3470|  4.3177e+01|  4.3177e+01|   -8.767624|  3.6294e-05|    0.036952|
|        3480|  4.3177e+01|  4.3177e+01|   -8.769950|  3.6088e-05|    0.036918|
|        3490|  4.3177e+01|  4.3177e+01|   -8.772243|  3.5880e-05|    0.036885|
|        3500|  4.3177e+01|  4.3177e+01|   -8.774446|  3.5672e-05|    0.036852|
|        3510|  4.3177e+01|  4.3177e+01|   -8.776595|  3.5468e-05|    0.036819|
|        3520|  4.3177e+01|  4.3177e+01|   -8.778762|  3.5266e-05|    0.036786|
|        3530|  4.3177e+01|  4.3177e+01|   -8.781025|  3.5063e-05|    0.036753|
|        3540|  4.3177e+01|  4.3177e+01|   -8.783320|  3.4860e-05|    0.036721|
|        3550|  4.3177e+01|  4.3177e+01|   -8.785574|  3.4655e-05|    0.036688|
|        3560|  4.3177e+01|  4.3177e+01|   -8.787767|  3.4452e-05|    0.036656|
|        3570|  4.3177e+01|  4.3177e+01|   -8.789905|  3.4251e-05|    0.036624|
|        3580|  4.3177e+01|  4.3177e+01|   -8.792060|  3.4052e-05|    0.036593|
|        3590|  4.3177e+01|  4.3177e+01|   -8.794192|  3.3855e-05|    0.036561|
|        3600|  4.3177e+01|  4.3177e+01|   -8.796325|  3.3659e-05|    0.036530|
+-----------------------------------------------------------------------+
|        File Writing Summary       |              Filename             |
+-----------------------------------------------------------------------+
|SU2 binary restart                 |restart_flow_G4.dat                |
|Paraview                           |flow_G4.vtu                        |
|Paraview surface                   |surface_flow_G4.vtu                |
+-----------------------------------------------------------------------+
+-----------------------------------------------------------------------------+
|  Inner_Iter|     Min CFL|     Max CFL|      rms[P]|  Cauchy[CD]|          CD|
+-----------------------------------------------------------------------------+
|        3610|  4.3177e+01|  4.3177e+01|   -8.798456|  3.3464e-05|    0.036499|
|        3620|  4.3177e+01|  4.3177e+01|   -8.800573|  3.3271e-05|    0.036468|
|        3630|  4.3177e+01|  4.3177e+01|   -8.802630|  3.3078e-05|    0.036437|
|        3640|  4.3177e+01|  4.3177e+01|   -8.804621|  3.2886e-05|    0.036406|
|        3650|  4.3177e+01|  4.3177e+01|   -8.806624|  3.2694e-05|    0.036376|
|        3660|  4.3177e+01|  4.3177e+01|   -8.808606|  3.2502e-05|    0.036346|
|        3670|  4.3177e+01|  4.3177e+01|   -8.810582|  3.2309e-05|    0.036316|
|        3680|  4.3177e+01|  4.3177e+01|   -8.812580|  3.2116e-05|    0.036286|
|        3690|  4.3177e+01|  4.3177e+01|   -8.814521|  3.1924e-05|    0.036256|
|        3700|  4.3177e+01|  4.3177e+01|   -8.816458|  3.1733e-05|    0.036227|
|        3710|  4.3177e+01|  4.3177e+01|   -8.818376|  3.1543e-05|    0.036197|
|        3720|  4.3177e+01|  4.3177e+01|   -8.820275|  3.1355e-05|    0.036168|
|        3730|  4.3177e+01|  4.3177e+01|   -8.822205|  3.1168e-05|    0.036139|
|        3740|  4.3177e+01|  4.3177e+01|   -8.824178|  3.0983e-05|    0.036110|
|        3750|  4.3177e+01|  4.3177e+01|   -8.826152|  3.0799e-05|    0.036082|
|        3760|  4.3177e+01|  4.3177e+01|   -8.828133|  3.0617e-05|    0.036053|
|        3770|  4.3177e+01|  4.3177e+01|   -8.830130|  3.0435e-05|    0.036025|
|        3780|  4.3177e+01|  4.3177e+01|   -8.832142|  3.0255e-05|    0.035997|
|        3790|  4.3177e+01|  4.3177e+01|   -8.834161|  3.0075e-05|    0.035969|
|        3800|  4.3177e+01|  4.3177e+01|   -8.836230|  2.9895e-05|    0.035941|
+-----------------------------------------------------------------------+
|        File Writing Summary       |              Filename             |
+-----------------------------------------------------------------------+
|SU2 binary restart                 |restart_flow_G4.dat                |
|Paraview                           |flow_G4.vtu                        |
|Paraview surface                   |surface_flow_G4.vtu                |
+-----------------------------------------------------------------------+
+-----------------------------------------------------------------------------+
|  Inner_Iter|     Min CFL|     Max CFL|      rms[P]|  Cauchy[CD]|          CD|
+-----------------------------------------------------------------------------+
|        3810|  4.3177e+01|  4.3177e+01|   -8.838347|  2.9716e-05|    0.035913|
|        3820|  4.3177e+01|  4.3177e+01|   -8.840492|  2.9537e-05|    0.035886|
|        3830|  4.3177e+01|  4.3177e+01|   -8.842667|  2.9359e-05|    0.035859|
|        3840|  4.3177e+01|  4.3177e+01|   -8.844857|  2.9181e-05|    0.035832|
|        3850|  4.3177e+01|  4.3177e+01|   -8.847033|  2.9005e-05|    0.035805|
|        3860|  4.3177e+01|  4.3177e+01|   -8.849228|  2.8829e-05|    0.035778|
|        3870|  4.3177e+01|  4.3177e+01|   -8.851408|  2.8655e-05|    0.035751|
|        3880|  4.3177e+01|  4.3177e+01|   -8.853608|  2.8483e-05|    0.035725|
|        3890|  4.3177e+01|  4.3177e+01|   -8.855814|  2.8313e-05|    0.035698|
|        3900|  4.3177e+01|  4.3177e+01|   -8.858031|  2.8145e-05|    0.035672|
|        3910|  4.3177e+01|  4.3177e+01|   -8.860245|  2.7977e-05|    0.035646|
|        3920|  4.3177e+01|  4.3177e+01|   -8.862449|  2.7811e-05|    0.035620|
|        3930|  4.3177e+01|  4.3177e+01|   -8.864620|  2.7646e-05|    0.035595|
|        3940|  4.3177e+01|  4.3177e+01|   -8.866786|  2.7482e-05|    0.035569|
|        3950|  4.3177e+01|  4.3177e+01|   -8.868944|  2.7318e-05|    0.035544|
|        3960|  4.3177e+01|  4.3177e+01|   -8.871116|  2.7154e-05|    0.035518|
|        3970|  4.3177e+01|  4.3177e+01|   -8.873275|  2.6990e-05|    0.035493|
|        3980|  4.3177e+01|  4.3177e+01|   -8.875420|  2.6827e-05|    0.035468|
|        3990|  4.3177e+01|  4.3177e+01|   -8.877575|  2.6663e-05|    0.035444|
|        4000|  4.3177e+01|  4.3177e+01|   -8.879711|  2.6502e-05|    0.035419|
+-----------------------------------------------------------------------+
|        File Writing Summary       |              Filename             |
+-----------------------------------------------------------------------+
|SU2 binary restart                 |restart_flow_G4.dat                |
|Paraview                           |flow_G4.vtu                        |
|Paraview surface                   |surface_flow_G4.vtu                |
+-----------------------------------------------------------------------+
+-----------------------------------------------------------------------------+
|  Inner_Iter|     Min CFL|     Max CFL|      rms[P]|  Cauchy[CD]|          CD|
+-----------------------------------------------------------------------------+
|        4010|  4.3177e+01|  4.3177e+01|   -8.881863|  2.6341e-05|    0.035395|
|        4020|  4.3177e+01|  4.3177e+01|   -8.884017|  2.6182e-05|    0.035370|
|        4030|  4.3177e+01|  4.3177e+01|   -8.886204|  2.6024e-05|    0.035346|
|        4040|  4.3177e+01|  4.3177e+01|   -8.888378|  2.5868e-05|    0.035322|
|        4050|  4.3177e+01|  4.3177e+01|   -8.890560|  2.5713e-05|    0.035298|
|        4060|  4.3177e+01|  4.3177e+01|   -8.892746|  2.5559e-05|    0.035274|
|        4070|  4.3177e+01|  4.3177e+01|   -8.894932|  2.5406e-05|    0.035251|
|        4080|  4.3177e+01|  4.3177e+01|   -8.897123|  2.5255e-05|    0.035227|
|        4090|  4.3177e+01|  4.3177e+01|   -8.899319|  2.5105e-05|    0.035204|
|        4100|  4.3177e+01|  4.3177e+01|   -8.901527|  2.4955e-05|    0.035181|
|        4110|  4.3177e+01|  4.3177e+01|   -8.903708|  2.4804e-05|    0.035158|
|        4120|  4.3177e+01|  4.3177e+01|   -8.905894|  2.4653e-05|    0.035135|
|        4130|  4.3177e+01|  4.3177e+01|   -8.908101|  2.4502e-05|    0.035112|
|        4140|  4.3177e+01|  4.3177e+01|   -8.910313|  2.4351e-05|    0.035090|
|        4150|  4.3177e+01|  4.3177e+01|   -8.912550|  2.4201e-05|    0.035067|
|        4160|  4.3177e+01|  4.3177e+01|   -8.914781|  2.4052e-05|    0.035045|
|        4170|  4.3177e+01|  4.3177e+01|   -8.916989|  2.3903e-05|    0.035023|
|        4180|  4.3177e+01|  4.3177e+01|   -8.919200|  2.3756e-05|    0.035001|
|        4190|  4.3177e+01|  4.3177e+01|   -8.921387|  2.3611e-05|    0.034979|
|        4200|  4.3177e+01|  4.3177e+01|   -8.923579|  2.3467e-05|    0.034957|
+-----------------------------------------------------------------------+
|        File Writing Summary       |              Filename             |
+-----------------------------------------------------------------------+
|SU2 binary restart                 |restart_flow_G4.dat                |
|Paraview                           |flow_G4.vtu                        |
|Paraview surface                   |surface_flow_G4.vtu                |
+-----------------------------------------------------------------------+
+-----------------------------------------------------------------------------+
|  Inner_Iter|     Min CFL|     Max CFL|      rms[P]|  Cauchy[CD]|          CD|
+-----------------------------------------------------------------------------+
|        4210|  4.3177e+01|  4.3177e+01|   -8.925752|  2.3324e-05|    0.034935|
|        4220|  4.3177e+01|  4.3177e+01|   -8.927964|  2.3183e-05|    0.034914|
|        4230|  4.3177e+01|  4.3177e+01|   -8.930185|  2.3044e-05|    0.034892|
|        4240|  4.3177e+01|  4.3177e+01|   -8.932400|  2.2905e-05|    0.034871|
|        4250|  4.3177e+01|  4.3177e+01|   -8.934592|  2.2766e-05|    0.034850|
|        4260|  4.3177e+01|  4.3177e+01|   -8.936792|  2.2628e-05|    0.034829|
|        4270|  4.3177e+01|  4.3177e+01|   -8.939034|  2.2490e-05|    0.034808|
|        4280|  4.3177e+01|  4.3177e+01|   -8.941279|  2.2352e-05|    0.034787|
|        4290|  4.3177e+01|  4.3177e+01|   -8.943543|  2.2214e-05|    0.034767|
|        4300|  4.3177e+01|  4.3177e+01|   -8.945818|  2.2077e-05|    0.034746|
|        4310|  4.3177e+01|  4.3177e+01|   -8.948107|  2.1940e-05|    0.034726|
|        4320|  4.3177e+01|  4.3177e+01|   -8.950377|  2.1804e-05|    0.034706|
|        4330|  4.3177e+01|  4.3177e+01|   -8.952643|  2.1669e-05|    0.034686|
|        4340|  4.3177e+01|  4.3177e+01|   -8.954913|  2.1534e-05|    0.034666|
|        4350|  4.3177e+01|  4.3177e+01|   -8.957208|  2.1401e-05|    0.034646|
|        4360|  4.3177e+01|  4.3177e+01|   -8.959519|  2.1269e-05|    0.034626|
|        4370|  4.3177e+01|  4.3177e+01|   -8.961833|  2.1138e-05|    0.034606|
|        4380|  4.3177e+01|  4.3177e+01|   -8.964133|  2.1009e-05|    0.034587|
|        4390|  4.3177e+01|  4.3177e+01|   -8.966429|  2.0881e-05|    0.034568|
|        4400|  4.3177e+01|  4.3177e+01|   -8.968721|  2.0754e-05|    0.034548|
+-----------------------------------------------------------------------+
|        File Writing Summary       |              Filename             |
+-----------------------------------------------------------------------+
|SU2 binary restart                 |restart_flow_G4.dat                |
|Paraview                           |flow_G4.vtu                        |
|Paraview surface                   |surface_flow_G4.vtu                |
+-----------------------------------------------------------------------+
+-----------------------------------------------------------------------------+
|  Inner_Iter|     Min CFL|     Max CFL|      rms[P]|  Cauchy[CD]|          CD|
+-----------------------------------------------------------------------------+
|        4410|  4.3177e+01|  4.3177e+01|   -8.971004|  2.0628e-05|    0.034529|
|        4420|  4.3177e+01|  4.3177e+01|   -8.973270|  2.0502e-05|    0.034510|
|        4430|  4.3177e+01|  4.3177e+01|   -8.975531|  2.0377e-05|    0.034491|
|        4440|  4.3177e+01|  4.3177e+01|   -8.977806|  2.0252e-05|    0.034472|
|        4450|  4.3177e+01|  4.3177e+01|   -8.980116|  2.0128e-05|    0.034454|
|        4460|  4.3177e+01|  4.3177e+01|   -8.982419|  2.0004e-05|    0.034435|
|        4470|  4.3177e+01|  4.3177e+01|   -8.984728|  1.9881e-05|    0.034417|
|        4480|  4.3177e+01|  4.3177e+01|   -8.987022|  1.9758e-05|    0.034398|
|        4490|  4.3177e+01|  4.3177e+01|   -8.989306|  1.9635e-05|    0.034380|
|        4500|  4.3177e+01|  4.3177e+01|   -8.991560|  1.9513e-05|    0.034362|
|        4510|  4.3177e+01|  4.3177e+01|   -8.993825|  1.9392e-05|    0.034344|
|        4520|  4.3177e+01|  4.3177e+01|   -8.996076|  1.9271e-05|    0.034326|
|        4530|  4.3177e+01|  4.3177e+01|   -8.998354|  1.9152e-05|    0.034309|
|        4540|  4.3177e+01|  4.3177e+01|   -9.000635|  1.9034e-05|    0.034291|
|        4550|  4.3177e+01|  4.3177e+01|   -9.002936|  1.8916e-05|    0.034273|
|        4560|  4.3177e+01|  4.3177e+01|   -9.005254|  1.8799e-05|    0.034256|
|        4570|  4.3177e+01|  4.3177e+01|   -9.007580|  1.8684e-05|    0.034239|
|        4580|  4.3177e+01|  4.3177e+01|   -9.009912|  1.8570e-05|    0.034221|
|        4590|  4.3177e+01|  4.3177e+01|   -9.012253|  1.8456e-05|    0.034204|
|        4600|  4.3177e+01|  4.3177e+01|   -9.014603|  1.8343e-05|    0.034187|
+-----------------------------------------------------------------------+
|        File Writing Summary       |              Filename             |
+-----------------------------------------------------------------------+
|SU2 binary restart                 |restart_flow_G4.dat                |
|Paraview                           |flow_G4.vtu                        |
|Paraview surface                   |surface_flow_G4.vtu                |
+-----------------------------------------------------------------------+
+-----------------------------------------------------------------------------+
|  Inner_Iter|     Min CFL|     Max CFL|      rms[P]|  Cauchy[CD]|          CD|
+-----------------------------------------------------------------------------+
|        4610|  4.3177e+01|  4.3177e+01|   -9.016947|  1.8231e-05|    0.034170|
|        4620|  4.3177e+01|  4.3177e+01|   -9.019308|  1.8120e-05|    0.034153|
|        4630|  4.3177e+01|  4.3177e+01|   -9.021675|  1.8010e-05|    0.034137|
|        4640|  4.3177e+01|  4.3177e+01|   -9.024043|  1.7899e-05|    0.034120|
|        4650|  4.3177e+01|  4.3177e+01|   -9.026389|  1.7788e-05|    0.034104|
|        4660|  4.3177e+01|  4.3177e+01|   -9.028732|  1.7678e-05|    0.034087|
|        4670|  4.3177e+01|  4.3177e+01|   -9.031075|  1.7568e-05|    0.034071|
|        4680|  4.3177e+01|  4.3177e+01|   -9.033435|  1.7457e-05|    0.034055|
|        4690|  4.3177e+01|  4.3177e+01|   -9.035802|  1.7347e-05|    0.034039|
|        4700|  4.3177e+01|  4.3177e+01|   -9.038187|  1.7237e-05|    0.034023|
|        4710|  4.3177e+01|  4.3177e+01|   -9.040593|  1.7128e-05|    0.034007|
|        4720|  4.3177e+01|  4.3177e+01|   -9.042978|  1.7019e-05|    0.033991|
|        4730|  4.3177e+01|  4.3177e+01|   -9.045348|  1.6911e-05|    0.033976|
|        4740|  4.3177e+01|  4.3177e+01|   -9.047711|  1.6804e-05|    0.033960|
|        4750|  4.3177e+01|  4.3177e+01|   -9.050078|  1.6699e-05|    0.033945|
|        4760|  4.3177e+01|  4.3177e+01|   -9.052451|  1.6595e-05|    0.033929|
|        4770|  4.3177e+01|  4.3177e+01|   -9.054832|  1.6493e-05|    0.033914|
|        4780|  4.3177e+01|  4.3177e+01|   -9.057214|  1.6391e-05|    0.033899|
|        4790|  4.3177e+01|  4.3177e+01|   -9.059601|  1.6291e-05|    0.033884|
|        4800|  4.3177e+01|  4.3177e+01|   -9.061994|  1.6191e-05|    0.033869|
+-----------------------------------------------------------------------+
|        File Writing Summary       |              Filename             |
+-----------------------------------------------------------------------+
|SU2 binary restart                 |restart_flow_G4.dat                |
|Paraview                           |flow_G4.vtu                        |
|Paraview surface                   |surface_flow_G4.vtu                |
+-----------------------------------------------------------------------+
+-----------------------------------------------------------------------------+
|  Inner_Iter|     Min CFL|     Max CFL|      rms[P]|  Cauchy[CD]|          CD|
+-----------------------------------------------------------------------------+
|        4810|  4.3177e+01|  4.3177e+01|   -9.064421|  1.6091e-05|    0.033854|
|        4820|  4.3177e+01|  4.3177e+01|   -9.066837|  1.5991e-05|    0.033839|
|        4830|  4.3177e+01|  4.3177e+01|   -9.069285|  1.5891e-05|    0.033824|
|        4840|  4.3177e+01|  4.3177e+01|   -9.071702|  1.5792e-05|    0.033809|
|        4850|  4.3177e+01|  4.3177e+01|   -9.074146|  1.5693e-05|    0.033795|
|        4860|  4.3177e+01|  4.3177e+01|   -9.076599|  1.5594e-05|    0.033780|
|        4870|  4.3177e+01|  4.3177e+01|   -9.079055|  1.5495e-05|    0.033766|
|        4880|  4.3177e+01|  4.3177e+01|   -9.081516|  1.5397e-05|    0.033752|
|        4890|  4.3177e+01|  4.3177e+01|   -9.083965|  1.5300e-05|    0.033738|
|        4900|  4.3177e+01|  4.3177e+01|   -9.086398|  1.5203e-05|    0.033724|
|        4910|  4.3177e+01|  4.3177e+01|   -9.088814|  1.5108e-05|    0.033710|
|        4920|  4.3177e+01|  4.3177e+01|   -9.091218|  1.5014e-05|    0.033696|
|        4930|  4.3177e+01|  4.3177e+01|   -9.093644|  1.4920e-05|    0.033682|
|        4940|  4.3177e+01|  4.3177e+01|   -9.096081|  1.4828e-05|    0.033668|
|        4950|  4.3177e+01|  4.3177e+01|   -9.098533|  1.4737e-05|    0.033654|
|        4960|  4.3177e+01|  4.3177e+01|   -9.100985|  1.4647e-05|    0.033641|
|        4970|  4.3177e+01|  4.3177e+01|   -9.103426|  1.4557e-05|    0.033627|
|        4980|  4.3177e+01|  4.3177e+01|   -9.105858|  1.4467e-05|    0.033614|
|        4990|  4.3177e+01|  4.3177e+01|   -9.108302|  1.4377e-05|    0.033601|
|        5000|  4.3177e+01|  4.3177e+01|   -9.110771|  1.4287e-05|    0.033587|
+-----------------------------------------------------------------------+
|        File Writing Summary       |              Filename             |
+-----------------------------------------------------------------------+
|SU2 binary restart                 |restart_flow_G4.dat                |
|Paraview                           |flow_G4.vtu                        |
|Paraview surface                   |surface_flow_G4.vtu                |
+-----------------------------------------------------------------------+
+-----------------------------------------------------------------------------+
|  Inner_Iter|     Min CFL|     Max CFL|      rms[P]|  Cauchy[CD]|          CD|
+-----------------------------------------------------------------------------+
|        5010|  4.3177e+01|  4.3177e+01|   -9.113241|  1.4196e-05|    0.033574|
|        5020|  4.3177e+01|  4.3177e+01|   -9.115687|  1.4106e-05|    0.033561|
|        5030|  4.3177e+01|  4.3177e+01|   -9.118122|  1.4015e-05|    0.033548|
|        5040|  4.3177e+01|  4.3177e+01|   -9.120528|  1.3926e-05|    0.033535|
|        5050|  4.3177e+01|  4.3177e+01|   -9.122949|  1.3836e-05|    0.033523|
|        5060|  4.3177e+01|  4.3177e+01|   -9.125398|  1.3748e-05|    0.033510|
|        5070|  4.3177e+01|  4.3177e+01|   -9.127879|  1.3661e-05|    0.033497|
|        5080|  4.3177e+01|  4.3177e+01|   -9.130376|  1.3574e-05|    0.033485|
|        5090|  4.3177e+01|  4.3177e+01|   -9.132880|  1.3487e-05|    0.033472|
|        5100|  4.3177e+01|  4.3177e+01|   -9.135359|  1.3402e-05|    0.033460|
|        5110|  4.3177e+01|  4.3177e+01|   -9.137815|  1.3317e-05|    0.033447|
|        5120|  4.3177e+01|  4.3177e+01|   -9.140259|  1.3233e-05|    0.033435|
|        5130|  4.3177e+01|  4.3177e+01|   -9.142701|  1.3150e-05|    0.033423|
|        5140|  4.3177e+01|  4.3177e+01|   -9.145162|  1.3067e-05|    0.033411|
|        5150|  4.3177e+01|  4.3177e+01|   -9.147644|  1.2985e-05|    0.033399|
|        5160|  4.3177e+01|  4.3177e+01|   -9.150145|  1.2903e-05|    0.033387|
|        5170|  4.3177e+01|  4.3177e+01|   -9.152665|  1.2822e-05|    0.033375|
|        5180|  4.3177e+01|  4.3177e+01|   -9.155170|  1.2741e-05|    0.033363|
|        5190|  4.3177e+01|  4.3177e+01|   -9.157672|  1.2661e-05|    0.033352|
|        5200|  4.3177e+01|  4.3177e+01|   -9.160173|  1.2581e-05|    0.033340|
+-----------------------------------------------------------------------+
|        File Writing Summary       |              Filename             |
+-----------------------------------------------------------------------+
|SU2 binary restart                 |restart_flow_G4.dat                |
|Paraview                           |flow_G4.vtu                        |
|Paraview surface                   |surface_flow_G4.vtu                |
+-----------------------------------------------------------------------+
+-----------------------------------------------------------------------------+
|  Inner_Iter|     Min CFL|     Max CFL|      rms[P]|  Cauchy[CD]|          CD|
+-----------------------------------------------------------------------------+
|        5210|  4.3177e+01|  4.3177e+01|   -9.162684|  1.2502e-05|    0.033328|
|        5220|  4.3177e+01|  4.3177e+01|   -9.165196|  1.2423e-05|    0.033317|
|        5230|  4.3177e+01|  4.3177e+01|   -9.167727|  1.2345e-05|    0.033305|
|        5240|  4.3177e+01|  4.3177e+01|   -9.170260|  1.2268e-05|    0.033294|
|        5250|  4.3177e+01|  4.3177e+01|   -9.172777|  1.2192e-05|    0.033283|
|        5260|  4.3177e+01|  4.3177e+01|   -9.175313|  1.2116e-05|    0.033271|
|        5270|  4.3177e+01|  4.3177e+01|   -9.177849|  1.2041e-05|    0.033260|
|        5280|  4.3177e+01|  4.3177e+01|   -9.180399|  1.1966e-05|    0.033249|
|        5290|  4.3177e+01|  4.3177e+01|   -9.182943|  1.1892e-05|    0.033238|
|        5300|  4.3177e+01|  4.3177e+01|   -9.185499|  1.1818e-05|    0.033227|
|        5310|  4.3177e+01|  4.3177e+01|   -9.188057|  1.1744e-05|    0.033216|
|        5320|  4.3177e+01|  4.3177e+01|   -9.190602|  1.1670e-05|    0.033206|
|        5330|  4.3177e+01|  4.3177e+01|   -9.193163|  1.1596e-05|    0.033195|
|        5340|  4.3177e+01|  4.3177e+01|   -9.195730|  1.1523e-05|    0.033184|
|        5350|  4.3177e+01|  4.3177e+01|   -9.198303|  1.1450e-05|    0.033174|
|        5360|  4.3177e+01|  4.3177e+01|   -9.200871|  1.1377e-05|    0.033163|
|        5370|  4.3177e+01|  4.3177e+01|   -9.203407|  1.1305e-05|    0.033153|
|        5380|  4.3177e+01|  4.3177e+01|   -9.205951|  1.1232e-05|    0.033142|
|        5390|  4.3177e+01|  4.3177e+01|   -9.208495|  1.1159e-05|    0.033132|
|        5400|  4.3177e+01|  4.3177e+01|   -9.211048|  1.1087e-05|    0.033122|
+-----------------------------------------------------------------------+
|        File Writing Summary       |              Filename             |
+-----------------------------------------------------------------------+
|SU2 binary restart                 |restart_flow_G4.dat                |
|Paraview                           |flow_G4.vtu                        |
|Paraview surface                   |surface_flow_G4.vtu                |
+-----------------------------------------------------------------------+
+-----------------------------------------------------------------------------+
|  Inner_Iter|     Min CFL|     Max CFL|      rms[P]|  Cauchy[CD]|          CD|
+-----------------------------------------------------------------------------+
|        5410|  4.3177e+01|  4.3177e+01|   -9.213625|  1.1016e-05|    0.033112|
|        5420|  4.3177e+01|  4.3177e+01|   -9.216206|  1.0944e-05|    0.033101|
|        5430|  4.3177e+01|  4.3177e+01|   -9.218792|  1.0873e-05|    0.033091|
|        5440|  4.3177e+01|  4.3177e+01|   -9.221383|  1.0803e-05|    0.033081|
|        5450|  4.3177e+01|  4.3177e+01|   -9.223971|  1.0733e-05|    0.033072|
|        5460|  4.3177e+01|  4.3177e+01|   -9.226556|  1.0663e-05|    0.033062|
|        5470|  4.3177e+01|  4.3177e+01|   -9.229128|  1.0594e-05|    0.033052|
|        5480|  4.3177e+01|  4.3177e+01|   -9.231693|  1.0525e-05|    0.033042|
|        5490|  4.3177e+01|  4.3177e+01|   -9.234261|  1.0456e-05|    0.033033|
|        5500|  4.3177e+01|  4.3177e+01|   -9.236834|  1.0389e-05|    0.033023|
|        5510|  4.3177e+01|  4.3177e+01|   -9.239399|  1.0321e-05|    0.033013|
|        5520|  7.4609e+00|  7.4609e+00|   -9.217954|  1.0195e-05|    0.033005|
|        5530|  4.6196e+01|  4.6196e+01|   -9.252552|  9.9284e-06|    0.033001|
|        5540|  2.3836e+01|  2.3836e+01|   -9.259737|  9.6130e-06|    0.032998|
|        5550|  1.2299e+01|  1.2299e+01|   -9.260770|  9.3583e-06|    0.032993|
|        5560|  4.4069e+01|  4.4069e+01|   -9.249117|  9.1740e-06|    0.032987|
|        5570|  4.4069e+01|  4.4069e+01|   -9.250597|  9.1171e-06|    0.032978|
|        5580|  4.4069e+01|  4.4069e+01|   -9.252665|  9.0648e-06|    0.032968|
|        5590|  4.4069e+01|  4.4069e+01|   -9.254881|  9.0162e-06|    0.032959|
|        5600|  4.4069e+01|  4.4069e+01|   -9.257399|  8.9714e-06|    0.032949|
+-----------------------------------------------------------------------+
|        File Writing Summary       |              Filename             |
+-----------------------------------------------------------------------+
|SU2 binary restart                 |restart_flow_G4.dat                |
|Paraview                           |flow_G4.vtu                        |
|Paraview surface                   |surface_flow_G4.vtu                |
+-----------------------------------------------------------------------+
+-----------------------------------------------------------------------------+
|  Inner_Iter|     Min CFL|     Max CFL|      rms[P]|  Cauchy[CD]|          CD|
+-----------------------------------------------------------------------------+
|        5610|  4.4069e+01|  4.4069e+01|   -9.259477|  8.9237e-06|    0.032940|
|        5620|  4.4069e+01|  4.4069e+01|   -9.261751|  8.8723e-06|    0.032931|
|        5630|  4.4069e+01|  4.4069e+01|   -9.264280|  8.8210e-06|    0.032922|
|        5640|  4.4069e+01|  4.4069e+01|   -9.266907|  8.7721e-06|    0.032913|
|        5650|  4.4069e+01|  4.4069e+01|   -9.269712|  8.7261e-06|    0.032904|
|        5660|  4.4069e+01|  4.4069e+01|   -9.272581|  8.6806e-06|    0.032895|
|        5670|  4.4069e+01|  4.4069e+01|   -9.275251|  8.6344e-06|    0.032886|
|        5680|  4.4069e+01|  4.4069e+01|   -9.277684|  8.5874e-06|    0.032877|
|        5690|  4.4069e+01|  4.4069e+01|   -9.280238|  8.5397e-06|    0.032868|
|        5700|  4.4069e+01|  4.4069e+01|   -9.283092|  8.4931e-06|    0.032859|
|        5710|  4.4069e+01|  4.4069e+01|   -9.286050|  8.4479e-06|    0.032851|
|        5720|  4.4069e+01|  4.4069e+01|   -9.288875|  8.4025e-06|    0.032842|
|        5730|  4.4069e+01|  4.4069e+01|   -9.291454|  8.3561e-06|    0.032833|
[...]
|  Inner_Iter|     Min CFL|     Max CFL|      rms[P]|  Cauchy[CD]|          CD|
+-----------------------------------------------------------------------------+
|        7410|  4.4069e+01|  4.4069e+01|   -9.770460|  3.0095e-06|    0.031972|
|        7420|  4.4069e+01|  4.4069e+01|   -9.773431|  2.9886e-06|    0.031969|
|        7430|  4.4069e+01|  4.4069e+01|   -9.776400|  2.9679e-06|    0.031966|
|        7440|  4.4069e+01|  4.4069e+01|   -9.779364|  2.9472e-06|    0.031963|
|        7450|  4.4069e+01|  4.4069e+01|   -9.782326|  2.9268e-06|    0.031961|
|        7460|  4.4069e+01|  4.4069e+01|   -9.785293|  2.9064e-06|    0.031958|
|        7470|  4.4069e+01|  4.4069e+01|   -9.788260|  2.8862e-06|    0.031955|
|        7480|  4.4069e+01|  4.4069e+01|   -9.791231|  2.8661e-06|    0.031953|
|        7490|  4.4069e+01|  4.4069e+01|   -9.794197|  2.8461e-06|    0.031950|
|        7500|  4.4069e+01|  4.4069e+01|   -9.797158|  2.8263e-06|    0.031948|
|        7510|  4.4069e+01|  4.4069e+01|   -9.800116|  2.8065e-06|    0.031945|
|        7520|  4.4069e+01|  4.4069e+01|   -9.803075|  2.7869e-06|    0.031942|
|        7530|  4.4069e+01|  4.4069e+01|   -9.806037|  2.7674e-06|    0.031940|
|        7540|  4.4069e+01|  4.4069e+01|   -9.808992|  2.7480e-06|    0.031937|
|        7550|  4.4069e+01|  4.4069e+01|   -9.811944|  2.7288e-06|    0.031935|
|        7560|  4.4069e+01|  4.4069e+01|   -9.814898|  2.7097e-06|    0.031932|
|        7570|  4.4069e+01|  4.4069e+01|   -9.817847|  2.6907e-06|    0.031930|
|        7580|  4.4069e+01|  4.4069e+01|   -9.820796|  2.6718e-06|    0.031928|
|        7590|  4.4069e+01|  4.4069e+01|   -9.823742|  2.6530e-06|    0.031925|
|        7600|  4.4069e+01|  4.4069e+01|   -9.826686|  2.6344e-06|    0.031923|
+-----------------------------------------------------------------------+
|        File Writing Summary       |              Filename             |
+-----------------------------------------------------------------------+
|SU2 binary restart                 |restart_flow_G4.dat                |
|Paraview                           |flow_G4.vtu                        |
|Paraview surface                   |surface_flow_G4.vtu                |
+-----------------------------------------------------------------------+
+-----------------------------------------------------------------------------+
|  Inner_Iter|     Min CFL|     Max CFL|      rms[P]|  Cauchy[CD]|          CD|
+-----------------------------------------------------------------------------+
|        7610|  4.4069e+01|  4.4069e+01|   -9.829631|  2.6159e-06|    0.031920|
|        7620|  4.4069e+01|  4.4069e+01|   -9.832577|  2.5975e-06|    0.031918|
|        7630|  4.4069e+01|  4.4069e+01|   -9.835521|  2.5792e-06|    0.031916|
|        7640|  4.4069e+01|  4.4069e+01|   -9.838462|  2.5610e-06|    0.031913|
|        7650|  4.4069e+01|  4.4069e+01|   -9.841402|  2.5429e-06|    0.031911|
|        7660|  4.4069e+01|  4.4069e+01|   -9.844341|  2.5250e-06|    0.031909|
|        7670|  4.4069e+01|  4.4069e+01|   -9.847280|  2.5071e-06|    0.031906|
|        7680|  4.4069e+01|  4.4069e+01|   -9.850215|  2.4894e-06|    0.031904|
|        7690|  4.4069e+01|  4.4069e+01|   -9.853150|  2.4718e-06|    0.031902|
|        7700|  4.4069e+01|  4.4069e+01|   -9.856088|  2.4543e-06|    0.031899|
|        7710|  4.4069e+01|  4.4069e+01|   -9.859029|  2.4369e-06|    0.031897|
|        7720|  4.4069e+01|  4.4069e+01|   -9.861976|  2.4197e-06|    0.031895|
|        7730|  4.4069e+01|  4.4069e+01|   -9.864923|  2.4026e-06|    0.031893|
|        7740|  4.4069e+01|  4.4069e+01|   -9.867872|  2.3857e-06|    0.031891|
|        7750|  4.4069e+01|  4.4069e+01|   -9.870815|  2.3689e-06|    0.031888|
|        7760|  4.4069e+01|  4.4069e+01|   -9.873755|  2.3523e-06|    0.031886|
|        7770|  4.4069e+01|  4.4069e+01|   -9.876695|  2.3358e-06|    0.031884|
|        7780|  4.4069e+01|  4.4069e+01|   -9.879640|  2.3194e-06|    0.031882|
|        7790|  4.4069e+01|  4.4069e+01|   -9.882590|  2.3032e-06|    0.031880|
|        7800|  4.4069e+01|  4.4069e+01|   -9.885544|  2.2871e-06|    0.031878|
+-----------------------------------------------------------------------+
|        File Writing Summary       |              Filename             |
+-----------------------------------------------------------------------+
|SU2 binary restart                 |restart_flow_G4.dat                |
|Paraview                           |flow_G4.vtu                        |
|Paraview surface                   |surface_flow_G4.vtu                |
+-----------------------------------------------------------------------+
+-----------------------------------------------------------------------------+
|  Inner_Iter|     Min CFL|     Max CFL|      rms[P]|  Cauchy[CD]|          CD|
+-----------------------------------------------------------------------------+
|        7810|  4.4069e+01|  4.4069e+01|   -9.888499|  2.2711e-06|    0.031876|
|        7820|  4.4069e+01|  4.4069e+01|   -9.891456|  2.2553e-06|    0.031874|
|        7830|  4.4069e+01|  4.4069e+01|   -9.894415|  2.2396e-06|    0.031872|
|        7840|  4.4069e+01|  4.4069e+01|   -9.897376|  2.2241e-06|    0.031869|
|        7850|  4.4069e+01|  4.4069e+01|   -9.900339|  2.2086e-06|    0.031867|
|        7860|  4.4069e+01|  4.4069e+01|   -9.903300|  2.1933e-06|    0.031865|
|        7870|  4.4069e+01|  4.4069e+01|   -9.906257|  2.1781e-06|    0.031863|
|        7880|  4.4069e+01|  4.4069e+01|   -9.909208|  2.1630e-06|    0.031861|
|        7890|  4.4069e+01|  4.4069e+01|   -9.912160|  2.1480e-06|    0.031859|
|        7900|  4.4069e+01|  4.4069e+01|   -9.915119|  2.1330e-06|    0.031858|
|        7910|  4.4069e+01|  4.4069e+01|   -9.918081|  2.1182e-06|    0.031856|
|        7920|  4.4069e+01|  4.4069e+01|   -9.921046|  2.1036e-06|    0.031854|
|        7930|  4.4069e+01|  4.4069e+01|   -9.924007|  2.0890e-06|    0.031852|
|        7940|  4.4069e+01|  4.4069e+01|   -9.926965|  2.0745e-06|    0.031850|
|        7950|  4.4069e+01|  4.4069e+01|   -9.929913|  2.0602e-06|    0.031848|
|        7960|  4.4069e+01|  4.4069e+01|   -9.932865|  2.0459e-06|    0.031846|
|        7970|  4.4069e+01|  4.4069e+01|   -9.935820|  2.0317e-06|    0.031844|
|        7980|  4.4069e+01|  4.4069e+01|   -9.938768|  2.0176e-06|    0.031842|
|        7990|  4.4069e+01|  4.4069e+01|   -9.941713|  2.0037e-06|    0.031840|
|        8000|  4.4069e+01|  4.4069e+01|   -9.944661|  1.9898e-06|    0.031839|
+-----------------------------------------------------------------------+
|        File Writing Summary       |              Filename             |
+-----------------------------------------------------------------------+
|SU2 binary restart                 |restart_flow_G4.dat                |
|Paraview                           |flow_G4.vtu                        |
|Paraview surface                   |surface_flow_G4.vtu                |
+-----------------------------------------------------------------------+
+-----------------------------------------------------------------------------+
|  Inner_Iter|     Min CFL|     Max CFL|      rms[P]|  Cauchy[CD]|          CD|
+-----------------------------------------------------------------------------+
|        8010|  4.4069e+01|  4.4069e+01|   -9.947604|  1.9760e-06|    0.031837|
|        8020|  4.4069e+01|  4.4069e+01|   -9.950545|  1.9624e-06|    0.031835|
|        8030|  4.4069e+01|  4.4069e+01|   -9.953487|  1.9488e-06|    0.031833|
|        8040|  4.4069e+01|  4.4069e+01|   -9.956433|  1.9354e-06|    0.031831|
|        8050|  4.4069e+01|  4.4069e+01|   -9.959385|  1.9221e-06|    0.031830|
|        8060|  4.4069e+01|  4.4069e+01|   -9.962344|  1.9089e-06|    0.031828|
|        8070|  4.4069e+01|  4.4069e+01|   -9.965304|  1.8957e-06|    0.031826|
|        8080|  4.4069e+01|  4.4069e+01|   -9.968271|  1.8827e-06|    0.031824|
|        8090|  4.4069e+01|  4.4069e+01|   -9.971232|  1.8698e-06|    0.031823|
|        8100|  4.4069e+01|  4.4069e+01|   -9.974195|  1.8570e-06|    0.031821|
|        8110|  4.4069e+01|  4.4069e+01|   -9.977159|  1.8443e-06|    0.031819|
|        8120|  4.4069e+01|  4.4069e+01|   -9.980123|  1.8317e-06|    0.031818|
|        8130|  4.4069e+01|  4.4069e+01|   -9.983087|  1.8193e-06|    0.031816|
|        8140|  4.4069e+01|  4.4069e+01|   -9.986052|  1.8069e-06|    0.031814|
|        8150|  4.4069e+01|  4.4069e+01|   -9.989021|  1.7946e-06|    0.031813|
|        8160|  4.4069e+01|  4.4069e+01|   -9.991997|  1.7824e-06|    0.031811|
|        8170|  4.4069e+01|  4.4069e+01|   -9.994975|  1.7704e-06|    0.031809|
|        8180|  4.4069e+01|  4.4069e+01|   -9.997958|  1.7584e-06|    0.031808|
|        8190|  4.4069e+01|  4.4069e+01|  -10.000947|  1.7465e-06|    0.031806|
|        8200|  4.4069e+01|  4.4069e+01|  -10.003941|  1.7347e-06|    0.031805|
+-----------------------------------------------------------------------+
|        File Writing Summary       |              Filename             |
+-----------------------------------------------------------------------+
|SU2 binary restart                 |restart_flow_G4.dat                |
|Paraview                           |flow_G4.vtu                        |
|Paraview surface                   |surface_flow_G4.vtu                |
+-----------------------------------------------------------------------+
+-----------------------------------------------------------------------------+
|  Inner_Iter|     Min CFL|     Max CFL|      rms[P]|  Cauchy[CD]|          CD|
+-----------------------------------------------------------------------------+
|        8210|  4.4069e+01|  4.4069e+01|  -10.006937|  1.7230e-06|    0.031803|
|        8220|  4.4069e+01|  4.4069e+01|  -10.009933|  1.7114e-06|    0.031801|
|        8230|  4.4069e+01|  4.4069e+01|  -10.012929|  1.6999e-06|    0.031800|
|        8240|  4.4069e+01|  4.4069e+01|  -10.015925|  1.6884e-06|    0.031798|
|        8250|  4.4069e+01|  4.4069e+01|  -10.018922|  1.6770e-06|    0.031797|
|        8260|  4.4069e+01|  4.4069e+01|  -10.021918|  1.6657e-06|    0.031795|
|        8270|  4.4069e+01|  4.4069e+01|  -10.024920|  1.6545e-06|    0.031794|
|        8280|  4.4069e+01|  4.4069e+01|  -10.027925|  1.6433e-06|    0.031792|
|        8290|  4.4069e+01|  4.4069e+01|  -10.030927|  1.6323e-06|    0.031791|
|        8300|  4.4069e+01|  4.4069e+01|  -10.033935|  1.6212e-06|    0.031789|
|        8310|  4.4069e+01|  4.4069e+01|  -10.036944|  1.6103e-06|    0.031788|
|        8320|  4.4069e+01|  4.4069e+01|  -10.039956|  1.5994e-06|    0.031786|
|        8330|  4.4069e+01|  4.4069e+01|  -10.042971|  1.5886e-06|    0.031785|
|        8340|  4.4069e+01|  4.4069e+01|  -10.045985|  1.5778e-06|    0.031783|
|        8350|  4.4069e+01|  4.4069e+01|  -10.049003|  1.5671e-06|    0.031782|
|        8360|  4.4069e+01|  4.4069e+01|  -10.052021|  1.5564e-06|    0.031780|
|        8370|  4.4069e+01|  4.4069e+01|  -10.055037|  1.5458e-06|    0.031779|
|        8380|  4.4069e+01|  4.4069e+01|  -10.058048|  1.5352e-06|    0.031778|
|        8390|  4.4069e+01|  4.4069e+01|  -10.061063|  1.5247e-06|    0.031776|
|        8400|  4.4069e+01|  4.4069e+01|  -10.064083|  1.5142e-06|    0.031775|
+-----------------------------------------------------------------------+
|        File Writing Summary       |              Filename             |
+-----------------------------------------------------------------------+
|SU2 binary restart                 |restart_flow_G4.dat                |
|Paraview                           |flow_G4.vtu                        |
|Paraview surface                   |surface_flow_G4.vtu                |
+-----------------------------------------------------------------------+
+-----------------------------------------------------------------------------+
|  Inner_Iter|     Min CFL|     Max CFL|      rms[P]|  Cauchy[CD]|          CD|
+-----------------------------------------------------------------------------+
|        8410|  4.4069e+01|  4.4069e+01|  -10.067108|  1.5038e-06|    0.031773|
|        8420|  4.4069e+01|  4.4069e+01|  -10.070135|  1.4934e-06|    0.031772|
|        8430|  4.4069e+01|  4.4069e+01|  -10.073163|  1.4830e-06|    0.031771|
|        8440|  4.4069e+01|  4.4069e+01|  -10.076191|  1.4727e-06|    0.031769|
|        8450|  4.4069e+01|  4.4069e+01|  -10.079218|  1.4625e-06|    0.031768|
|        8460|  4.4069e+01|  4.4069e+01|  -10.082241|  1.4523e-06|    0.031767|
|        8470|  4.4069e+01|  4.4069e+01|  -10.085266|  1.4422e-06|    0.031765|
|        8480|  4.4069e+01|  4.4069e+01|  -10.088290|  1.4321e-06|    0.031764|
|        8490|  4.4069e+01|  4.4069e+01|  -10.091314|  1.4221e-06|    0.031763|
|        8500|  4.4069e+01|  4.4069e+01|  -10.094336|  1.4122e-06|    0.031761|
|        8510|  4.4069e+01|  4.4069e+01|  -10.097356|  1.4023e-06|    0.031760|
|        8520|  4.4069e+01|  4.4069e+01|  -10.100376|  1.3925e-06|    0.031759|
|        8530|  4.4069e+01|  4.4069e+01|  -10.103398|  1.3827e-06|    0.031758|
|        8540|  4.4069e+01|  4.4069e+01|  -10.106423|  1.3730e-06|    0.031756|
|        8550|  4.4069e+01|  4.4069e+01|  -10.109451|  1.3633e-06|    0.031755|
|        8560|  4.4069e+01|  4.4069e+01|  -10.112480|  1.3537e-06|    0.031754|
|        8570|  4.4069e+01|  4.4069e+01|  -10.115508|  1.3442e-06|    0.031753|
|        8580|  4.4069e+01|  4.4069e+01|  -10.118535|  1.3347e-06|    0.031751|
|        8590|  4.4069e+01|  4.4069e+01|  -10.121561|  1.3253e-06|    0.031750|
|        8600|  4.4069e+01|  4.4069e+01|  -10.124587|  1.3160e-06|    0.031749|
+-----------------------------------------------------------------------+
|        File Writing Summary       |              Filename             |
+-----------------------------------------------------------------------+
|SU2 binary restart                 |restart_flow_G4.dat                |
|Paraview                           |flow_G4.vtu                        |
|Paraview surface                   |surface_flow_G4.vtu                |
+-----------------------------------------------------------------------+
+-----------------------------------------------------------------------------+
|  Inner_Iter|     Min CFL|     Max CFL|      rms[P]|  Cauchy[CD]|          CD|
+-----------------------------------------------------------------------------+
|        8610|  4.4069e+01|  4.4069e+01|  -10.127613|  1.3067e-06|    0.031748|
|        8620|  4.4069e+01|  4.4069e+01|  -10.130642|  1.2975e-06|    0.031747|
|        8630|  4.4069e+01|  4.4069e+01|  -10.133663|  1.2884e-06|    0.031745|
|        8640|  4.4069e+01|  4.4069e+01|  -10.136687|  1.2794e-06|    0.031744|
|        8650|  4.4069e+01|  4.4069e+01|  -10.139708|  1.2705e-06|    0.031743|
|        8660|  4.4069e+01|  4.4069e+01|  -10.142728|  1.2616e-06|    0.031742|
|        8670|  4.4069e+01|  4.4069e+01|  -10.145746|  1.2528e-06|    0.031741|
|        8680|  4.4069e+01|  4.4069e+01|  -10.148760|  1.2441e-06|    0.031740|
|        8690|  4.4069e+01|  4.4069e+01|  -10.151773|  1.2355e-06|    0.031738|
|        8700|  4.4069e+01|  4.4069e+01|  -10.154785|  1.2270e-06|    0.031737|
|        8710|  4.4069e+01|  4.4069e+01|  -10.157796|  1.2185e-06|    0.031736|
|        8720|  4.4069e+01|  4.4069e+01|  -10.160805|  1.2101e-06|    0.031735|
|        8730|  4.4069e+01|  4.4069e+01|  -10.163810|  1.2017e-06|    0.031734|
|        8740|  4.4069e+01|  4.4069e+01|  -10.166813|  1.1934e-06|    0.031733|
|        8750|  4.4069e+01|  4.4069e+01|  -10.169814|  1.1852e-06|    0.031732|
|        8760|  4.4069e+01|  4.4069e+01|  -10.172815|  1.1770e-06|    0.031731|
|        8770|  4.4069e+01|  4.4069e+01|  -10.175817|  1.1689e-06|    0.031730|
|        8780|  4.4069e+01|  4.4069e+01|  -10.178818|  1.1609e-06|    0.031729|
|        8790|  4.4069e+01|  4.4069e+01|  -10.181817|  1.1529e-06|    0.031727|
|        8800|  4.4069e+01|  4.4069e+01|  -10.184813|  1.1450e-06|    0.031726|
+-----------------------------------------------------------------------+
|        File Writing Summary       |              Filename             |
+-----------------------------------------------------------------------+
|SU2 binary restart                 |restart_flow_G4.dat                |
|Paraview                           |flow_G4.vtu                        |
|Paraview surface                   |surface_flow_G4.vtu                |
+-----------------------------------------------------------------------+
+-----------------------------------------------------------------------------+
|  Inner_Iter|     Min CFL|     Max CFL|      rms[P]|  Cauchy[CD]|          CD|
+-----------------------------------------------------------------------------+
|        8810|  4.4069e+01|  4.4069e+01|  -10.187806|  1.1371e-06|    0.031725|
|        8820|  4.4069e+01|  4.4069e+01|  -10.190797|  1.1294e-06|    0.031724|
|        8830|  4.4069e+01|  4.4069e+01|  -10.193788|  1.1216e-06|    0.031723|
|        8840|  4.4069e+01|  4.4069e+01|  -10.196778|  1.1139e-06|    0.031722|
|        8850|  4.4069e+01|  4.4069e+01|  -10.199767|  1.1063e-06|    0.031721|
|        8860|  4.4069e+01|  4.4069e+01|  -10.202756|  1.0988e-06|    0.031720|
|        8870|  4.4069e+01|  4.4069e+01|  -10.205745|  1.0913e-06|    0.031719|
|        8880|  4.4069e+01|  4.4069e+01|  -10.208737|  1.0838e-06|    0.031718|
|        8890|  4.4069e+01|  4.4069e+01|  -10.211733|  1.0764e-06|    0.031717|
|        8900|  4.4069e+01|  4.4069e+01|  -10.214731|  1.0690e-06|    0.031716|
|        8910|  4.4069e+01|  4.4069e+01|  -10.217733|  1.0617e-06|    0.031715|
|        8920|  4.4069e+01|  4.4069e+01|  -10.220735|  1.0545e-06|    0.031714|
|        8930|  4.4069e+01|  4.4069e+01|  -10.223739|  1.0473e-06|    0.031713|
|        8940|  4.4069e+01|  4.4069e+01|  -10.226746|  1.0401e-06|    0.031712|
|        8950|  4.4069e+01|  4.4069e+01|  -10.229758|  1.0330e-06|    0.031711|
|        8960|  4.4069e+01|  4.4069e+01|  -10.232776|  1.0260e-06|    0.031711|
|        8970|  4.4069e+01|  4.4069e+01|  -10.235803|  1.0189e-06|    0.031710|
|        8980|  4.4069e+01|  4.4069e+01|  -10.238837|  1.0120e-06|    0.031709|
|        8990|  4.4069e+01|  4.4069e+01|  -10.241876|  1.0051e-06|    0.031708|
|        8998|  4.4069e+01|  4.4069e+01|  -10.244310|  9.9956e-07|    0.031707|

----------------------------- Solver Exit -------------------------------
All convergence criteria satisfied.
+-----------------------------------------------------------------------+
|      Convergence Field     |     Value    |   Criterion  |  Converged |
+-----------------------------------------------------------------------+
|                      rms[P]|      -10.2443|          < -9|         Yes|
|                  Cauchy[CD]|   9.99557e-07|       < 1e-06|         Yes|
+-----------------------------------------------------------------------+
-------------------------------------------------------------------------
+-----------------------------------------------------------------------+
|        File Writing Summary       |              Filename             |
+-----------------------------------------------------------------------+
|SU2 binary restart                 |restart_flow_G4.dat                |
|Paraview                           |flow_G4.vtu                        |
|Paraview surface                   |surface_flow_G4.vtu                |
+-----------------------------------------------------------------------+

------------------------- Solver Postprocessing -------------------------
Deleted CNumerics container.
Deleted CIntegration container.
Deleted CSolver container.
Deleted CIteration container.
Deleted CInterface container.
Deleted CGeometry container.
Deleted CFreeFormDefBox class.
Deleted CSurfaceMovement class.
Deleted CVolumetricMovement class.
Deleted CConfig container.
Deleted nInst container.
Deleted COutput class.
-------------------------------------------------------------------------

------------------------- Exit Success (SU2_CFD) ------------------------

