
-------------------------------------------------------------------------
|    ___ _   _ ___                                                      |
|   / __| | | |_  )   Release 7.4.0 "Blackbird"                         |
|   \__ \ |_| |/ /                                                      |
|   |___/\___//___|   Suite (Computational Fluid Dynamics Code)         |
|                                                                       |
-------------------------------------------------------------------------
| SU2 Project Website: https://su2code.github.io                        |
|                                                                       |
| The SU2 Project is maintained by the SU2 Foundation                   |
| (http://su2foundation.org)                                            |
-------------------------------------------------------------------------
| Copyright 2012-2022, SU2 Contributors                                 |
|                                                                       |
| SU2 is free software; you can redistribute it and/or                  |
| modify it under the terms of the GNU Lesser General Public            |
| License as published by the Free Software Foundation; either          |
| version 2.1 of the License, or (at your option) any later version.    |
|                                                                       |
| SU2 is distributed in the hope that it will be useful,                |
| but WITHOUT ANY WARRANTY; without even the implied warranty of        |
| MERCHANTABILITY or FITNESS FOR A PARTICULAR PURPOSE. See the GNU      |
| Lesser General Public License for more details.                       |
|                                                                       |
| You should have received a copy of the GNU Lesser General Public      |
| License along with SU2. If not, see <http://www.gnu.org/licenses/>.   |
-------------------------------------------------------------------------

Parsing config file for zone 0

----------------- Physical Case Definition ( Zone 0 ) -------------------
Incompressible RANS equations.
Turbulence model: Spalart-Allmaras-noft2
Hybrid RANS/LES: No Hybrid RANS/LES
No restart solution, use the values at infinity (freestream).
Non-Dimensional simulation using intialization values.
The reference area is 1 m^2.
The semi-span will be computed using the max y(3D) value.
The reference length is 1.00898 m.
Reference origin for moment evaluation is (-0.756, 0, 0).
Surface(s) where the force coefficients are evaluated: AIRFOIL.

Surface(s) plotted in the output file: AIRFOIL.
Input mesh file name: ../meshG4/meshG4.su2

--------------- Space Numerical Integration ( Zone 0 ) ------------------
Flux difference splitting (FDS) upwind scheme for the flow inviscid terms.
First order integration in space.
Average of gradients with correction (viscous flow terms).
Average of gradients with correction (viscous turbulence terms).
Gradient for upwind reconstruction: unweighted Least-Squares.
Gradient for viscous and source terms: Green-Gauss.

--------------- Time Numerical Integration  ( Zone 0 ) ------------------
Local time stepping (steady state simulation).
Euler implicit method for the flow equations.
FGMRES is used for solving the linear system.
Using a ILU(0) preconditioning.
Convergence criteria of the linear solver: 1e-06.
Max number of linear iterations: 10.
CFL adaptation. Factor down: 0.1, factor up: 1.2,
                lower limit: 1, upper limit: 1000,
                acceptable linear residual: 0.001.
Courant-Friedrichs-Lewy number:        2
Euler implicit time integration for the turbulence model.

------------------ Convergence Criteria  ( Zone 0 ) ---------------------
Maximum number of solver subiterations: 9999.
Begin convergence monitoring at iteration 10.
Residual minimum value: 1e-9.
Cauchy series min. value: 1e-06.
Number of Cauchy elements: 250.
Begin windowed time average at iteration 0.

-------------------- Output Information ( Zone 0 ) ----------------------
File writing frequency: 
+------------------------------------+
|                     File| Frequency|
+------------------------------------+
|                  RESTART|       200|
|                 PARAVIEW|       200|
|         SURFACE_PARAVIEW|       200|
+------------------------------------+
Writing the convergence history file every 1 inner iterations.
Writing the screen convergence history every 10 inner iterations.
The tabular file format is CSV (.csv).
Convergence history file name: history_G4.
Forces breakdown file name: forces_breakdown.dat.
Surface file name: surface_flow_G4.
Volume file name: flow_G4.
Restart file name: restart_flow_G4.dat.

------------- Config File Boundary Information ( Zone 0 ) ---------------
+-----------------------------------------------------------------------+
|                        Marker Type|                        Marker Name|
+-----------------------------------------------------------------------+
|                          Far-field|                           FARFIELD|
+-----------------------------------------------------------------------+
|                     Heat flux wall|                            AIRFOIL|
+-----------------------------------------------------------------------+

-------------------- Output Preprocessing ( Zone 0 ) --------------------

WARNING: SURFACE_PRESSURE_DROP can only be computed for at least 2 surfaces (outlet, inlet, ...)

Screen output fields: INNER_ITER, MIN_CFL, MAX_CFL, RMS_PRESSURE, CAUCHY_DRAG, DRAG
History output group(s): INNER_ITER, MIN_CFL, MAX_CFL, RMS_RES, LIFT, DRAG, MOMENT_Z, CAUCHY
Convergence field(s): RMS_PRESSURE, DRAG
Warning: No (valid) fields chosen for time convergence monitoring. Time convergence monitoring inactive.
Volume output fields: COORDINATES, SOLUTION, PRIMITIVE, RESIDUAL, MESH_QUALITY

------------------- Geometry Preprocessing ( Zone 0 ) -------------------
Two dimensional problem.
251057 grid points before partitioning.
249975 volume elements before partitioning.
2 surface markers.
603 boundary elements in index 0 (Marker = AIRFOIL).
1561 boundary elements in index 1 (Marker = FARFIELD).
Executing the partitioning functions.
Building the graph adjacency structure.
Calling ParMETIS... graph partitioning complete (5132 edge cuts).
Distributing ParMETIS coloring.
Rebalancing vertices.
Rebalancing volume element connectivity.
Rebalancing markers and surface elements.
261374 vertices including ghost points. 
255110 interior elements including halo cells. 
255110 quadrilaterals.
Establishing MPI communication patterns.
Setting point connectivity.
Renumbering points (Reverse Cuthill McKee Ordering).
Recomputing point connectivity.
Setting element connectivity.
Checking the numerical grid orientation.
All volume elements are correctly orientend.
There has been a re-orientation of 1092 LINE surface elements.
Identifying edges and vertices.
Setting the control volume structure.
Area of the computational grid: 103262.
Searching for the closest normal neighbors to the surfaces.
Storing a mapping from global to local point index.
Compute the surface curvature.
Max K: 5206.4. Mean K: 4.08642. Standard deviation K: 114.591.
Checking for periodicity.
Computing mesh quality statistics for the dual control volumes.
+--------------------------------------------------------------+
|           Mesh Quality Metric|        Minimum|        Maximum|
+--------------------------------------------------------------+
|    Orthogonality Angle (deg.)|        80.1093|             90|
|     CV Face Area Aspect Ratio|        1.00002|         364665|
|           CV Sub-Volume Ratio|              1|        28.3484|
+--------------------------------------------------------------+
Finding max control volume width.
Communicating number of neighbors.
Wetted area = 2.05965 m.
Area projection in the x-plane = 0.121114 m, y-plane = 1.00878 m.
Max. coordinate in the x-direction = 1.00898 m, y-direction = 0.0759843 m.
Min. coordinate in the x-direction = 6.29983e-06 m, y-direction = -0.0451339 m.
Computing wall distances.

-------------------- Solver Preprocessing ( Zone 0 ) --------------------
Incompressible flow: rho_ref, vel_ref, and temp_ref
are based on the initial values, p_ref = rho_ref*vel_ref^2.
Force coefficients computed using initial values.
The reference area for force coeffs. is 1 m^2.
The reference length for force coeffs. is 1.00898 m.
The pressure is decomposed into thermodynamic and dynamic components.
The initial value of the dynamic pressure is 0.
Mach number: 0.0276747, computed using the Bulk modulus.
For external flows, the initial state is imposed at the far-field.
Angle of attack (deg): 14, computed using the initial velocity.
Side slip angle (deg): 0, computed using the initial velocity.
Reynolds number per meter: 594999, computed using initial values.
Reynolds number is a byproduct of inputs only (not used internally).
SI units only. The grid should be dimensional (meters).
No energy equation.

-- Models:
+------------------------------------------------------------------------------+
|          Viscosity Model|        Conductivity Model|              Fluid Model|
+------------------------------------------------------------------------------+
|       CONSTANT_VISCOSITY|          CONSTANT_PRANDTL|         CONSTANT_DENSITY|
+------------------------------------------------------------------------------+
-- Fluid properties:
+------------------------------------------------------------------------------+
|                  Name|    Dim. value|    Ref. value|      Unit|Non-dim. value|
+------------------------------------------------------------------------------+
|             Viscosity|      1.92e-05|        11.424|   N.s/m^2|   1.68067e-06|
+------------------------------------------------------------------------------+
|        Prandtl (Lam.)|             -|             -|         -|          0.72|
|       Prandtl (Turb.)|             -|             -|         -|           0.9|
+------------------------------------------------------------------------------+
|          Bulk Modulus|        142000|             1|        Pa|        142000|
+------------------------------------------------------------------------------+
-- Initial and free-stream conditions:
+------------------------------------------------------------------------------+
|                  Name|    Dim. value|    Ref. value|      Unit|Non-dim. value|
+------------------------------------------------------------------------------+
|      Dynamic Pressure|             0|       108.756|        Pa|             0|
|        Total Pressure|       54.3781|       108.756|        Pa|           0.5|
|               Density|           1.2|           1.2|    kg/m^3|             1|
|            Velocity-X|        9.2372|       9.51999|       m/s|      0.970296|
|            Velocity-Y|        2.3031|       9.51999|       m/s|      0.241923|
|    Velocity Magnitude|       9.51999|       9.51999|       m/s|             1|
+------------------------------------------------------------------------------+
|             Viscosity|      1.92e-05|        11.424|   N.s/m^2|   1.68067e-06|
|          Conductivity|             -|       3.59312|   W/m^2.K|             -|
|     Turb. Kin. Energy|       1.35945|       90.6301|   m^2/s^2|         0.015|
|     Spec. Dissipation|       8496.58|       9.51999|       1/s|       892.499|
+------------------------------------------------------------------------------+
|           Mach Number|             -|             -|         -|     0.0276747|
|       Reynolds Number|             -|             -|         -|        594999|
+------------------------------------------------------------------------------+
Initialize Jacobian structure (Navier-Stokes). MG level: 0.
Initialize Jacobian structure (SA model).

------------------- Numerics Preprocessing ( Zone 0 ) -------------------

----------------- Integration Preprocessing ( Zone 0 ) ------------------

------------------- Iteration Preprocessing ( Zone 0 ) ------------------
Euler/Navier-Stokes/RANS fluid iteration.

------------------------------ Begin Solver -----------------------------

Simulation Run using the Single-zone Driver
+-----------------------------------------------------------------------------+
|  Inner_Iter|     Min CFL|     Max CFL|      rms[P]|  Cauchy[CD]|          CD|
+-----------------------------------------------------------------------------+
|           0|  2.4000e+00|  2.4000e+00|   -4.269749|  1.0000e+00|    0.672075|
|          10|  1.4860e+01|  1.4860e+01|   -4.999567|  1.1851e-03|    0.886613|
|          20|  7.6675e+00|  7.6675e+00|   -5.134652|  1.2719e-03|    0.867612|
|          30|  3.9563e+00|  3.9563e+00|   -5.069888|  1.4805e-03|    0.823705|
|          40|  2.4496e+01|  2.4496e+01|   -5.021796|  1.8102e-03|    0.758919|
|          50|  3.5275e+01|  3.5275e+01|   -5.006981|  3.4811e-03|    0.504172|
|          60|  1.5167e+01|  1.5167e+01|   -5.005965|  4.6496e-03|    0.378984|
|          70|  7.8260e+00|  7.8260e+00|   -5.048603|  6.5377e-03|    0.239999|
|          80|  4.0381e+01|  4.0381e+01|   -5.091373|  8.4669e-03|    0.150202|
|          90|  5.8148e+00|  5.8148e+00|   -5.151644|  1.0960e-02|    0.079770|
|         100|  3.6004e+01|  3.6004e+01|   -5.151719|  1.1990e-02|    0.054016|
|         110|  1.5481e+01|  1.5481e+01|   -5.159362|  1.3405e-02|    0.018661|
|         120|  7.9878e+00|  7.9878e+00|   -5.150784|  1.4841e-02|   -0.017238|
|         130|  4.9459e+01|  4.9459e+01|   -5.143667|  1.5321e-02|   -0.019773|
|         140|  2.5520e+01|  2.5520e+01|   -5.155474|  1.6460e-02|    0.008691|
|         150|  7.6201e+00|  7.6201e+00|   -5.175680|  2.1443e-02|    0.144291|
|         160|  4.7182e+01|  4.7182e+01|   -5.168407|  2.3270e-02|    0.230536|
|         170|  2.4345e+01|  2.4345e+01|   -5.181750|  2.3985e-02|    0.276565|
|         180|  1.2561e+01|  1.2561e+01|   -5.196224|  2.4298e-02|    0.298988|
|         190|  4.5010e+01|  4.5010e+01|   -5.182044|  2.5099e-02|    0.245541|
|         200|  5.4011e+00|  5.4011e+00|   -5.177825|  2.7973e-02|    0.122726|
+-----------------------------------------------------------------------+
|        File Writing Summary       |              Filename             |
+-----------------------------------------------------------------------+
|SU2 binary restart                 |restart_flow_G4.dat                |
|Paraview                           |flow_G4.vtu                        |
|Paraview surface                   |surface_flow_G4.vtu                |
+-----------------------------------------------------------------------+
+-----------------------------------------------------------------------------+
|  Inner_Iter|     Min CFL|     Max CFL|      rms[P]|  Cauchy[CD]|          CD|
+-----------------------------------------------------------------------------+
|         210|  3.3442e+01|  3.3442e+01|   -5.180516|  2.8576e-02|    0.105686|
|         220|  1.7256e+01|  1.7256e+01|   -5.202416|  2.8758e-02|    0.104958|
|         230|  8.9035e+00|  8.9035e+00|   -5.218580|  2.9507e-02|    0.126891|
|         240|  4.5940e+01|  4.5940e+01|   -5.223236|  3.0220e-02|    0.151953|
|         250|  1.9753e+01|  1.9753e+01|   -5.237983|  3.0577e-02|    0.166292|
|         260|  4.9153e+01|  4.9153e+01|   -5.227847|  2.9527e-02|    0.172001|
|         270|  1.2231e+01|  1.2231e+01|   -5.256096|  2.9497e-02|    0.174478|
|         280|  6.3108e+00|  6.3108e+00|   -5.292632|  2.9326e-02|    0.175749|
|         290|  3.9075e+01|  3.9075e+01|   -5.305435|  2.9058e-02|    0.173081|
|         300|  8.1026e+00|  8.1026e+00|   -5.314108|  2.7954e-02|    0.150386|
|         310|  5.0169e+01|  5.0169e+01|   -5.300029|  2.7214e-02|    0.135188|
|         320|  7.2243e+00|  7.2243e+00|   -5.325359|  2.5738e-02|    0.123241|
|         330|  4.4731e+01|  4.4731e+01|   -5.360036|  2.3955e-02|    0.127822|
|         340|  2.3080e+01|  2.3080e+01|   -5.415836|  2.1702e-02|    0.135806|
|         350|  1.1909e+01|  1.1909e+01|   -5.452035|  2.1014e-02|    0.147981|
|         360|  5.1206e+01|  5.1206e+01|   -5.437854|  1.9862e-02|    0.158074|
|         370|  5.1206e+01|  5.1206e+01|   -5.479490|  1.8597e-02|    0.155885|
|         380|  5.1206e+01|  5.1206e+01|   -5.615746|  1.8648e-02|    0.136632|
|         390|  5.1206e+01|  5.1206e+01|   -5.657410|  1.7857e-02|    0.125306|
|         400|  1.0618e+01|  1.0618e+01|   -5.707424|  1.2952e-02|    0.127343|
+-----------------------------------------------------------------------+
|        File Writing Summary       |              Filename             |
+-----------------------------------------------------------------------+
|SU2 binary restart                 |restart_flow_G4.dat                |
|Paraview                           |flow_G4.vtu                        |
|Paraview surface                   |surface_flow_G4.vtu                |
+-----------------------------------------------------------------------+
+-----------------------------------------------------------------------------+
|  Inner_Iter|     Min CFL|     Max CFL|      rms[P]|  Cauchy[CD]|          CD|
+-----------------------------------------------------------------------------+
|         410|  5.4787e+00|  5.4787e+00|   -5.760361|  1.1263e-02|    0.131816|
|         420|  3.3923e+01|  3.3923e+01|   -5.809480|  1.0623e-02|    0.134315|
|         430|  1.7503e+01|  1.7503e+01|   -5.867933|  1.0410e-02|    0.137728|
|         440|  9.0314e+00|  9.0314e+00|   -5.858948|  9.6566e-03|    0.139384|
|         450|  5.5920e+01|  5.5920e+01|   -5.835686|  6.8100e-03|    0.138464|
|         460|  8.0525e+00|  8.0525e+00|   -5.925511|  6.3668e-03|    0.133056|
|         470|  4.9859e+01|  4.9859e+01|   -6.017756|  6.2683e-03|    0.130284|
|         480|  2.5726e+01|  2.5726e+01|   -6.173766|  5.5871e-03|    0.128125|
|         490|  5.3345e+01|  5.3345e+01|   -6.161964|  4.9212e-03|    0.126995|
|         500|  2.7525e+01|  2.7525e+01|   -6.118777|  4.5852e-03|    0.127677|
|         510|  1.4202e+01|  1.4202e+01|   -6.152475|  4.5003e-03|    0.129279|
|         520|  5.0890e+01|  5.0890e+01|   -6.320267|  4.4928e-03|    0.130894|
|         530|  5.0890e+01|  5.0890e+01|   -6.272301|  4.5007e-03|    0.129659|
|         540|  5.0890e+00|  5.0890e+00|   -6.210569|  4.5384e-03|    0.126495|
|         550|  3.1509e+01|  3.1509e+01|   -6.264846|  3.9908e-03|    0.125871|
|         560|  1.6258e+01|  1.6258e+01|   -6.385032|  3.5826e-03|    0.125218|
|         570|  5.8256e+01|  5.8256e+01|   -6.419523|  3.1786e-03|    0.124981|
|         580|  3.0059e+01|  3.0059e+01|   -6.366135|  3.0356e-03|    0.125061|
|         590|  1.5510e+01|  1.5510e+01|   -6.344202|  2.7991e-03|    0.125207|
|         600|  8.0027e+00|  8.0027e+00|   -6.397201|  2.4604e-03|    0.125265|
+-----------------------------------------------------------------------+
|        File Writing Summary       |              Filename             |
+-----------------------------------------------------------------------+
|SU2 binary restart                 |restart_flow_G4.dat                |
|Paraview                           |flow_G4.vtu                        |
|Paraview surface                   |surface_flow_G4.vtu                |
+-----------------------------------------------------------------------+
+-----------------------------------------------------------------------------+
|  Inner_Iter|     Min CFL|     Max CFL|      rms[P]|  Cauchy[CD]|          CD|
+-----------------------------------------------------------------------------+
|         610|  4.9550e+01|  4.9550e+01|   -6.456033|  2.2029e-03|    0.125096|
|         620|  2.5567e+01|  2.5567e+01|   -6.494824|  2.0460e-03|    0.124659|
|         630|  5.3016e+01|  5.3016e+01|   -6.387248|  1.5749e-03|    0.122815|
|         640|  5.3016e+01|  5.3016e+01|   -6.413782|  1.3020e-03|    0.120533|
|         650|  5.3016e+01|  5.3016e+01|   -6.557845|  1.2450e-03|    0.119923|
|         660|  7.6342e+00|  7.6342e+00|   -6.551973|  1.1206e-03|    0.120323|
|         670|  4.7269e+01|  4.7269e+01|   -6.571203|  1.0486e-03|    0.120415|
|         680|  2.4390e+01|  2.4390e+01|   -6.607765|  9.5016e-04|    0.120365|
|         690|  1.2585e+01|  1.2585e+01|   -6.632565|  9.1343e-04|    0.120033|
|         700|  5.4112e+01|  5.4112e+01|   -6.608442|  9.0897e-04|    0.119368|
|         710|  5.4112e+01|  5.4112e+01|   -6.594548|  7.9015e-04|    0.118154|
|         720|  5.4112e+01|  5.4112e+01|   -6.668263|  7.2088e-04|    0.117709|
|         730|  5.4112e+01|  5.4112e+01|   -6.733368|  6.6199e-04|    0.117946|
|         740|  5.4112e+01|  5.4112e+01|   -6.782032|  6.2054e-04|    0.117882|
|         750|  5.4112e+01|  5.4112e+01|   -6.788356|  6.2296e-04|    0.117181|
|         760|  5.4112e+01|  5.4112e+01|   -6.773227|  5.9412e-04|    0.116568|
|         770|  7.7921e+00|  7.7921e+00|   -6.758787|  5.5027e-04|    0.116636|
|         780|  4.8246e+01|  4.8246e+01|   -6.756593|  5.1121e-04|    0.116807|
|         790|  2.4894e+01|  2.4894e+01|   -6.755913|  4.1886e-04|    0.117001|
|         800|  1.2845e+01|  1.2845e+01|   -6.754815|  4.0659e-04|    0.117220|
+-----------------------------------------------------------------------+
|        File Writing Summary       |              Filename             |
+-----------------------------------------------------------------------+
|SU2 binary restart                 |restart_flow_G4.dat                |
|Paraview                           |flow_G4.vtu                        |
|Paraview surface                   |surface_flow_G4.vtu                |
+-----------------------------------------------------------------------+
+-----------------------------------------------------------------------------+
|  Inner_Iter|     Min CFL|     Max CFL|      rms[P]|  Cauchy[CD]|          CD|
+-----------------------------------------------------------------------------+
|         810|  6.6276e+00|  6.6276e+00|   -6.750714|  3.8872e-04|    0.117287|
|         820|  4.1037e+01|  4.1037e+01|   -6.748584|  3.8273e-04|    0.117225|
|         830|  2.1174e+01|  2.1174e+01|   -6.745994|  3.8620e-04|    0.117049|
|         840|  1.0925e+01|  1.0925e+01|   -6.742879|  3.9238e-04|    0.116732|
|         850|  6.7647e+01|  6.7647e+01|   -6.740756|  3.9954e-04|    0.116448|
|         860|  3.4904e+01|  3.4904e+01|   -6.743578|  3.9895e-04|    0.116308|
|         870|  1.8010e+01|  1.8010e+01|   -6.748795|  3.8667e-04|    0.116258|
|         880|  9.2927e+00|  9.2927e+00|   -6.756349|  3.3083e-04|    0.116370|
|         890|  5.7538e+01|  5.7538e+01|   -6.761707|  2.6185e-04|    0.116547|
|         900|  2.9688e+01|  2.9688e+01|   -6.768656|  2.4697e-04|    0.116741|
|         910|  6.1561e+01|  6.1561e+01|   -6.771882|  2.4178e-04|    0.116978|
|         920|  7.3874e+00|  7.3874e+00|   -6.779400|  2.4666e-04|    0.116746|
|         930|  4.5741e+01|  4.5741e+01|   -6.785150|  2.4921e-04|    0.116621|
|         940|  6.5867e+01|  6.5867e+01|   -6.780633|  2.4829e-04|    0.116326|
|         950|  6.5867e+01|  6.5867e+01|   -6.780288|  2.2882e-04|    0.116374|
|         960|  6.5867e+01|  6.5867e+01|   -6.784591|  1.9062e-04|    0.116446|
|         970|  2.3601e+01|  2.3601e+01|   -6.799321|  1.7786e-04|    0.116378|
|         980|  1.2178e+01|  1.2178e+01|   -6.807118|  1.7401e-04|    0.116257|
|         990|  7.5401e+01|  7.5401e+01|   -6.813487|  1.7268e-04|    0.116117|
|        1000|  3.8905e+01|  3.8905e+01|   -6.825774|  1.5227e-04|    0.116017|
+-----------------------------------------------------------------------+
|        File Writing Summary       |              Filename             |
+-----------------------------------------------------------------------+
|SU2 binary restart                 |restart_flow_G4.dat                |
|Paraview                           |flow_G4.vtu                        |
|Paraview surface                   |surface_flow_G4.vtu                |
+-----------------------------------------------------------------------+
+-----------------------------------------------------------------------------+
|  Inner_Iter|     Min CFL|     Max CFL|      rms[P]|  Cauchy[CD]|          CD|
+-----------------------------------------------------------------------------+
|        1010|  6.7228e+01|  6.7228e+01|   -6.836255|  1.3759e-04|    0.115835|
|        1020|  6.7228e+01|  6.7228e+01|   -6.854758|  1.3591e-04|    0.115716|
|        1030|  2.8907e+01|  2.8907e+01|   -6.872948|  1.3256e-04|    0.115643|
|        1040|  1.4915e+01|  1.4915e+01|   -6.887009|  1.2936e-04|    0.115544|
|        1050|  7.6960e+00|  7.6960e+00|   -6.901434|  1.2698e-04|    0.115397|
|        1060|  4.7652e+01|  4.7652e+01|   -6.920127|  1.2684e-04|    0.115315|
|        1070|  6.8618e+01|  6.8618e+01|   -6.963215|  1.3333e-04|    0.115067|
|        1080|  6.8618e+01|  6.8618e+01|   -7.017136|  1.3434e-04|    0.114866|
|        1090|  6.8618e+01|  6.8618e+01|   -7.066484|  1.3072e-04|    0.114658|
|        1100|  6.8618e+01|  6.8618e+01|   -7.106510|  1.2957e-04|    0.114412|
|        1110|  6.8618e+01|  6.8618e+01|   -7.131837|  1.3300e-04|    0.114176|
|        1120|  6.8618e+01|  6.8618e+01|   -7.139492|  1.3829e-04|    0.113976|
|        1130|  6.8618e+01|  6.8618e+01|   -7.134786|  1.4103e-04|    0.113789|
|        1140|  8.2342e+01|  8.2342e+01|   -7.123804|  1.4162e-04|    0.113600|
|        1150|  4.2487e+01|  4.2487e+01|   -7.121357|  1.3734e-04|    0.113532|
|        1160|  2.1922e+01|  2.1922e+01|   -7.115193|  1.3184e-04|    0.113458|
|        1170|  1.1311e+01|  1.1311e+01|   -7.105725|  1.2702e-04|    0.113369|
|        1180|  7.0037e+01|  7.0037e+01|   -7.102732|  1.2497e-04|    0.113305|
|        1190|  3.6138e+01|  3.6138e+01|   -7.100318|  1.1701e-04|    0.113244|
|        1200|  1.8646e+01|  1.8646e+01|   -7.096531|  1.1640e-04|    0.113183|
+-----------------------------------------------------------------------+
|        File Writing Summary       |              Filename             |
+-----------------------------------------------------------------------+
|SU2 binary restart                 |restart_flow_G4.dat                |
|Paraview                           |flow_G4.vtu                        |
|Paraview surface                   |surface_flow_G4.vtu                |
+-----------------------------------------------------------------------+
+-----------------------------------------------------------------------------+
|  Inner_Iter|     Min CFL|     Max CFL|      rms[P]|  Cauchy[CD]|          CD|
+-----------------------------------------------------------------------------+
|        1210|  9.6210e+00|  9.6210e+00|   -7.089084|  1.1617e-04|    0.113113|
|        1220|  5.9571e+01|  5.9571e+01|   -7.094052|  1.1535e-04|    0.113071|
|        1230|  3.0737e+01|  3.0737e+01|   -7.096422|  1.1306e-04|    0.113017|
|        1240|  1.5860e+01|  1.5860e+01|   -7.098252|  1.1002e-04|    0.112967|
|        1250|  8.1833e+00|  8.1833e+00|   -7.099651|  1.0854e-04|    0.112912|
|        1260|  5.0669e+01|  5.0669e+01|   -7.108363|  1.0316e-04|    0.112886|
|        1270|  7.2963e+01|  7.2963e+01|   -7.122031|  1.0171e-04|    0.112811|
|        1280|  7.2963e+01|  7.2963e+01|   -7.151303|  1.0123e-04|    0.112753|
|        1290|  7.2963e+01|  7.2963e+01|   -7.190350|  9.9377e-05|    0.112709|
|        1300|  7.2963e+01|  7.2963e+01|   -7.239164|  9.5501e-05|    0.112675|
|        1310|  7.2963e+01|  7.2963e+01|   -7.297733|  9.3449e-05|    0.112652|
|        1320|  2.6144e+01|  2.6144e+01|   -7.333940|  8.5040e-05|    0.112647|
|        1330|  1.3490e+01|  1.3490e+01|   -7.366047|  7.8157e-05|    0.112643|
|        1340|  6.9604e+01|  6.9604e+01|   -7.392535|  7.1071e-05|    0.112639|
|        1350|  6.9604e+01|  6.9604e+01|   -7.452129|  6.2750e-05|    0.112632|
|        1360|  8.3525e+00|  8.3525e+00|   -7.494600|  5.4672e-05|    0.112637|
|        1370|  5.1716e+01|  5.1716e+01|   -7.505364|  4.7803e-05|    0.112641|
|        1380|  7.4471e+01|  7.4471e+01|   -7.504420|  4.1464e-05|    0.112647|
|        1390|  7.4471e+01|  7.4471e+01|   -7.485812|  3.5013e-05|    0.112654|
|        1400|  7.4471e+01|  7.4471e+01|   -7.459830|  3.3025e-05|    0.112665|
+-----------------------------------------------------------------------+
|        File Writing Summary       |              Filename             |
+-----------------------------------------------------------------------+
|SU2 binary restart                 |restart_flow_G4.dat                |
|Paraview                           |flow_G4.vtu                        |
|Paraview surface                   |surface_flow_G4.vtu                |
+-----------------------------------------------------------------------+
+-----------------------------------------------------------------------------+
|  Inner_Iter|     Min CFL|     Max CFL|      rms[P]|  Cauchy[CD]|          CD|
+-----------------------------------------------------------------------------+
|        1410|  1.2869e+01|  1.2869e+01|   -7.443975|  3.0732e-05|    0.112674|
|        1420|  7.9679e+01|  7.9679e+01|   -7.440134|  2.7788e-05|    0.112679|
|        1430|  4.1113e+01|  4.1113e+01|   -7.439685|  2.5645e-05|    0.112682|
|        1440|  2.1213e+01|  2.1213e+01|   -7.438537|  2.3624e-05|    0.112686|
|        1450|  7.6011e+01|  7.6011e+01|   -7.437254|  2.1625e-05|    0.112690|
|        1460|  7.6011e+01|  7.6011e+01|   -7.455791|  1.9586e-05|    0.112703|
|        1470|  7.6011e+01|  7.6011e+01|   -7.488123|  1.8761e-05|    0.112722|
|        1480|  7.6011e+01|  7.6011e+01|   -7.534906|  1.7238e-05|    0.112732|
|        1490|  1.8914e+01|  1.8914e+01|   -7.578364|  1.5649e-05|    0.112738|
|        1500|  9.7592e+00|  9.7592e+00|   -7.606939|  1.3976e-05|    0.112745|
|        1510|  6.0426e+01|  6.0426e+01|   -7.632150|  1.3176e-05|    0.112749|
|        1520|  7.2512e+01|  7.2512e+01|   -7.697822|  1.0964e-05|    0.112761|
|        1530|  7.2512e+01|  7.2512e+01|   -7.777011|  9.5630e-06|    0.112779|
|        1540|  7.2512e+01|  7.2512e+01|   -7.852566|  8.7082e-06|    0.112799|
|        1550|  1.8043e+01|  1.8043e+01|   -7.894174|  7.8392e-06|    0.112809|
|        1560|  9.3099e+00|  9.3099e+00|   -7.912337|  7.4222e-06|    0.112820|
|        1570|  5.7644e+01|  5.7644e+01|   -7.922229|  7.4248e-06|    0.112825|
|        1580|  6.9173e+01|  6.9173e+01|   -7.924968|  7.8704e-06|    0.112842|
|        1590|  6.9173e+01|  6.9173e+01|   -7.905971|  8.5718e-06|    0.112866|
|        1600|  6.9173e+01|  6.9173e+01|   -7.877247|  9.2777e-06|    0.112893|
+-----------------------------------------------------------------------+
|        File Writing Summary       |              Filename             |
+-----------------------------------------------------------------------+
|SU2 binary restart                 |restart_flow_G4.dat                |
|Paraview                           |flow_G4.vtu                        |
|Paraview surface                   |surface_flow_G4.vtu                |
+-----------------------------------------------------------------------+
+-----------------------------------------------------------------------------+
|  Inner_Iter|     Min CFL|     Max CFL|      rms[P]|  Cauchy[CD]|          CD|
+-----------------------------------------------------------------------------+
|        1610|  6.9173e+01|  6.9173e+01|   -7.852246|  9.9640e-06|    0.112918|
|        1620|  6.9173e+01|  6.9173e+01|   -7.835875|  1.0742e-05|    0.112943|
|        1630|  3.5692e+01|  3.5692e+01|   -7.838031|  1.0824e-05|    0.112952|
|        1640|  1.8416e+01|  1.8416e+01|   -7.834694|  1.1088e-05|    0.112966|
|        1650|  6.5989e+01|  6.5989e+01|   -7.832358|  1.1319e-05|    0.112984|
|        1660|  6.5989e+01|  6.5989e+01|   -7.843555|  1.1959e-05|    0.113011|
|        1670|  6.5989e+01|  6.5989e+01|   -7.864921|  1.2880e-05|    0.113042|
|        1680|  9.5024e+00|  9.5024e+00|   -7.895562|  1.3720e-05|    0.113069|
|        1690|  5.8836e+01|  5.8836e+01|   -7.909486|  1.4029e-05|    0.113081|
|        1700|  3.0358e+01|  3.0358e+01|   -7.926740|  1.4262e-05|    0.113092|
|        1710|  6.2951e+01|  6.2951e+01|   -7.957598|  1.4638e-05|    0.113116|
|        1720|  6.2951e+01|  6.2951e+01|   -8.008914|  1.5001e-05|    0.113145|
|        1730|  2.7068e+01|  2.7068e+01|   -8.037216|  1.5039e-05|    0.113157|
|        1740|  1.3966e+01|  1.3966e+01|   -8.063519|  1.5415e-05|    0.113173|
|        1750|  6.0053e+01|  6.0053e+01|   -8.089102|  1.5773e-05|    0.113191|
|        1760|  6.0053e+01|  6.0053e+01|   -8.141858|  1.6654e-05|    0.113219|
|        1770|  6.0053e+01|  6.0053e+01|   -8.187644|  1.7243e-05|    0.113248|
|        1780|  8.6476e+00|  8.6476e+00|   -8.219569|  1.7455e-05|    0.113272|
|        1790|  5.3544e+01|  5.3544e+01|   -8.229296|  1.7164e-05|    0.113284|
|        1800|  2.7627e+01|  2.7627e+01|   -8.236791|  1.7181e-05|    0.113295|
+-----------------------------------------------------------------------+
|        File Writing Summary       |              Filename             |
+-----------------------------------------------------------------------+
|SU2 binary restart                 |restart_flow_G4.dat                |
|Paraview                           |flow_G4.vtu                        |
|Paraview surface                   |surface_flow_G4.vtu                |
+-----------------------------------------------------------------------+
+-----------------------------------------------------------------------------+
|  Inner_Iter|     Min CFL|     Max CFL|      rms[P]|  Cauchy[CD]|          CD|
+-----------------------------------------------------------------------------+
|        1810|  5.7288e+01|  5.7288e+01|   -8.242836|  1.7617e-05|    0.113318|
|        1820|  5.7288e+01|  5.7288e+01|   -8.247971|  1.8366e-05|    0.113344|
|        1830|  5.7288e+01|  5.7288e+01|   -8.247023|  1.8734e-05|    0.113371|
|        1840|  5.7288e+01|  5.7288e+01|   -8.246521|  1.8859e-05|    0.113399|
|        1850|  5.7288e+01|  5.7288e+01|   -8.248456|  1.8843e-05|    0.113426|
|        1860|  5.7288e+01|  5.7288e+01|   -8.253096|  1.8877e-05|    0.113452|
|        1870|  5.7288e+01|  5.7288e+01|   -8.262175|  1.8844e-05|    0.113477|
|        1880|  5.7288e+01|  5.7288e+01|   -8.277296|  1.9431e-05|    0.113502|
|        1890|  5.7288e+01|  5.7288e+01|   -8.297703|  1.9839e-05|    0.113528|
|        1900|  9.8994e+00|  9.8994e+00|   -8.321238|  1.9860e-05|    0.113546|
|        1910|  6.1294e+01|  6.1294e+01|   -8.331986|  1.9280e-05|    0.113557|
|        1920|  3.1626e+01|  3.1626e+01|   -8.344854|  1.8445e-05|    0.113565|
|        1930|  5.4651e+01|  5.4651e+01|   -8.368272|  1.8211e-05|    0.113585|
|        1940|  5.4651e+01|  5.4651e+01|   -8.404938|  1.8555e-05|    0.113607|
|        1950|  1.3599e+01|  1.3599e+01|   -8.434537|  1.8632e-05|    0.113620|
|        1960|  7.0167e+00|  7.0167e+00|   -8.453361|  1.8236e-05|    0.113633|
|        1970|  4.3445e+01|  4.3445e+01|   -8.469535|  1.7468e-05|    0.113640|
|        1980|  5.2135e+01|  5.2135e+01|   -8.503536|  1.7765e-05|    0.113661|
|        1990|  5.2135e+01|  5.2135e+01|   -8.541240|  1.7911e-05|    0.113681|
|        2000|  1.5567e+01|  1.5567e+01|   -8.565541|  1.7644e-05|    0.113691|
+-----------------------------------------------------------------------+
|        File Writing Summary       |              Filename             |
+-----------------------------------------------------------------------+
|SU2 binary restart                 |restart_flow_G4.dat                |
|Paraview                           |flow_G4.vtu                        |
|Paraview surface                   |surface_flow_G4.vtu                |
+-----------------------------------------------------------------------+
+-----------------------------------------------------------------------------+
|  Inner_Iter|     Min CFL|     Max CFL|      rms[P]|  Cauchy[CD]|          CD|
+-----------------------------------------------------------------------------+
|        2010|  8.0324e+00|  8.0324e+00|   -8.581778|  1.7019e-05|    0.113702|
|        2020|  4.9734e+01|  4.9734e+01|   -8.592831|  1.6285e-05|    0.113710|
|        2030|  4.9734e+01|  4.9734e+01|   -8.609087|  1.6085e-05|    0.113729|
|        2040|  4.9734e+01|  4.9734e+01|   -8.619248|  1.6340e-05|    0.113748|
|        2050|  4.9734e+01|  4.9734e+01|   -8.621901|  1.6633e-05|    0.113767|
|        2060|  4.9734e+01|  4.9734e+01|   -8.617854|  1.6487e-05|    0.113786|
|        2070|  4.9734e+01|  4.9734e+01|   -8.608543|  1.6202e-05|    0.113804|
|        2080|  4.9734e+01|  4.9734e+01|   -8.598615|  1.5897e-05|    0.113823|
|        2090|  4.9734e+01|  4.9734e+01|   -8.591159|  1.5568e-05|    0.113841|
|        2100|  4.9734e+01|  4.9734e+01|   -8.586417|  1.5258e-05|    0.113860|
|        2110|  4.9734e+01|  4.9734e+01|   -8.583564|  1.4992e-05|    0.113878|
|        2120|  2.5662e+01|  2.5662e+01|   -8.587781|  1.4310e-05|    0.113884|
|        2130|  1.3241e+01|  1.3241e+01|   -8.586516|  1.3717e-05|    0.113892|
|        2140|  4.7445e+01|  4.7445e+01|   -8.584941|  1.3220e-05|    0.113903|
|        2150|  4.7445e+01|  4.7445e+01|   -8.589225|  1.3172e-05|    0.113920|
|        2160|  4.7445e+01|  4.7445e+01|   -8.595952|  1.3376e-05|    0.113938|
|        2170|  4.7445e+01|  4.7445e+01|   -8.604811|  1.3717e-05|    0.113955|
|        2180|  4.7445e+01|  4.7445e+01|   -8.615419|  1.3631e-05|    0.113972|
|        2190|  2.0400e+01|  2.0400e+01|   -8.624241|  1.3065e-05|    0.113979|
|        2200|  1.0526e+01|  1.0526e+01|   -8.629383|  1.2900e-05|    0.113987|
+-----------------------------------------------------------------------+
|        File Writing Summary       |              Filename             |
+-----------------------------------------------------------------------+
|SU2 binary restart                 |restart_flow_G4.dat                |
|Paraview                           |flow_G4.vtu                        |
|Paraview surface                   |surface_flow_G4.vtu                |
+-----------------------------------------------------------------------+
+-----------------------------------------------------------------------------+
|  Inner_Iter|     Min CFL|     Max CFL|      rms[P]|  Cauchy[CD]|          CD|
+-----------------------------------------------------------------------------+
|        2210|  4.5260e+01|  4.5260e+01|   -8.634126|  1.2791e-05|    0.113997|
|        2220|  4.5260e+01|  4.5260e+01|   -8.645324|  1.3084e-05|    0.114013|
|        2230|  4.5260e+01|  4.5260e+01|   -8.657872|  1.2938e-05|    0.114029|
|        2240|  4.5260e+01|  4.5260e+01|   -8.670460|  1.2799e-05|    0.114045|
|        2250|  7.8210e+00|  7.8210e+00|   -8.683272|  1.2868e-05|    0.114057|
|        2260|  4.8426e+01|  4.8426e+01|   -8.689760|  1.2755e-05|    0.114065|
|        2270|  2.4987e+01|  2.4987e+01|   -8.695071|  1.2661e-05|    0.114071|
|        2280|  4.3177e+01|  4.3177e+01|   -8.700815|  1.2485e-05|    0.114084|
|        2290|  4.3177e+01|  4.3177e+01|   -8.711771|  1.2351e-05|    0.114100|
|        2300|  4.3177e+01|  4.3177e+01|   -8.721314|  1.2212e-05|    0.114115|
|        2310|  4.3177e+01|  4.3177e+01|   -8.730318|  1.2089e-05|    0.114130|
|        2320|  4.3177e+01|  4.3177e+01|   -8.738967|  1.1986e-05|    0.114146|
|        2330|  4.3177e+01|  4.3177e+01|   -8.746742|  1.1882e-05|    0.114162|
|        2340|  4.3177e+01|  4.3177e+01|   -8.754169|  1.1773e-05|    0.114177|
|        2350|  4.3177e+01|  4.3177e+01|   -8.760770|  1.1665e-05|    0.114192|
|        2360|  4.3177e+01|  4.3177e+01|   -8.766883|  1.1552e-05|    0.114207|
|        2370|  4.3177e+01|  4.3177e+01|   -8.773443|  1.1882e-05|    0.114222|
|        2380|  4.3177e+01|  4.3177e+01|   -8.780545|  1.2114e-05|    0.114238|
|        2390|  4.3177e+01|  4.3177e+01|   -8.787801|  1.2252e-05|    0.114253|
|        2400|  4.3177e+01|  4.3177e+01|   -8.795023|  1.2186e-05|    0.114268|
+-----------------------------------------------------------------------+
|        File Writing Summary       |              Filename             |
+-----------------------------------------------------------------------+
|SU2 binary restart                 |restart_flow_G4.dat                |
|Paraview                           |flow_G4.vtu                        |
|Paraview surface                   |surface_flow_G4.vtu                |
+-----------------------------------------------------------------------+
+-----------------------------------------------------------------------------+
|  Inner_Iter|     Min CFL|     Max CFL|      rms[P]|  Cauchy[CD]|          CD|
+-----------------------------------------------------------------------------+
|        2410|  4.3177e+01|  4.3177e+01|   -8.802580|  1.2109e-05|    0.114283|
|        2420|  4.3177e+01|  4.3177e+01|   -8.810802|  1.2018e-05|    0.114298|
|        2430|  4.3177e+00|  4.3177e+00|   -8.819604|  1.1925e-05|    0.114313|
|        2440|  2.6734e+01|  2.6734e+01|   -8.826972|  1.1838e-05|    0.114317|
|        2450|  1.3794e+01|  1.3794e+01|   -8.830901|  1.1772e-05|    0.114323|
|        2460|  4.1189e+01|  4.1189e+01|   -8.833641|  1.1799e-05|    0.114334|
|        2470|  4.1189e+01|  4.1189e+01|   -8.842382|  1.1728e-05|    0.114347|
|        2480|  4.1189e+01|  4.1189e+01|   -8.851568|  1.1652e-05|    0.114361|
|        2490|  4.1189e+01|  4.1189e+01|   -8.860540|  1.1566e-05|    0.114375|
|        2500|  4.1189e+01|  4.1189e+01|   -8.869526|  1.1625e-05|    0.114389|
|        2510|  4.1189e+01|  4.1189e+01|   -8.877882|  1.1842e-05|    0.114403|
|        2520|  4.1189e+01|  4.1189e+01|   -8.885627|  1.2135e-05|    0.114417|
|        2530|  4.1189e+01|  4.1189e+01|   -8.893214|  1.2127e-05|    0.114431|
|        2540|  4.1189e+01|  4.1189e+01|   -8.900027|  1.2066e-05|    0.114444|
|        2550|  4.1189e+01|  4.1189e+01|   -8.905832|  1.2006e-05|    0.114458|
|        2560|  4.1189e+01|  4.1189e+01|   -8.910978|  1.1940e-05|    0.114471|
|        2570|  4.1189e+01|  4.1189e+01|   -8.915642|  1.1864e-05|    0.114485|
|        2580|  4.1189e+01|  4.1189e+01|   -8.919867|  1.1787e-05|    0.114498|
|        2590|  4.1189e+01|  4.1189e+01|   -8.923568|  1.1716e-05|    0.114512|
|        2600|  4.1189e+01|  4.1189e+01|   -8.926832|  1.1649e-05|    0.114525|
+-----------------------------------------------------------------------+
|        File Writing Summary       |              Filename             |
+-----------------------------------------------------------------------+
|SU2 binary restart                 |restart_flow_G4.dat                |
|Paraview                           |flow_G4.vtu                        |
|Paraview surface                   |surface_flow_G4.vtu                |
+-----------------------------------------------------------------------+
+-----------------------------------------------------------------------------+
|  Inner_Iter|     Min CFL|     Max CFL|      rms[P]|  Cauchy[CD]|          CD|
+-----------------------------------------------------------------------------+
|        2610|  4.1189e+01|  4.1189e+01|   -8.929798|  1.1583e-05|    0.114538|
|        2620|  4.1189e+01|  4.1189e+01|   -8.932593|  1.1513e-05|    0.114552|
|        2630|  4.1189e+01|  4.1189e+01|   -8.935417|  1.1437e-05|    0.114565|
|        2640|  4.1189e+01|  4.1189e+01|   -8.938361|  1.1361e-05|    0.114578|
|        2650|  4.1189e+01|  4.1189e+01|   -8.941322|  1.1288e-05|    0.114591|
|        2660|  4.1189e+01|  4.1189e+01|   -8.944273|  1.1218e-05|    0.114604|
|        2670|  4.1189e+01|  4.1189e+01|   -8.947402|  1.1149e-05|    0.114617|
|        2680|  4.1189e+01|  4.1189e+01|   -8.950884|  1.1077e-05|    0.114630|
|        2690|  4.1189e+01|  4.1189e+01|   -8.954709|  1.1386e-05|    0.114643|
|        2700|  4.1189e+01|  4.1189e+01|   -8.958773|  1.1601e-05|    0.114655|
|        2710|  4.1189e+01|  4.1189e+01|   -8.963002|  1.1688e-05|    0.114668|
|        2720|  4.1189e+01|  4.1189e+01|   -8.967389|  1.1644e-05|    0.114681|
|        2730|  4.1189e+01|  4.1189e+01|   -8.971971|  1.1597e-05|    0.114693|
|        2740|  4.1189e+01|  4.1189e+01|   -8.976785|  1.1547e-05|    0.114706|
|        2750|  4.1189e+01|  4.1189e+01|   -8.981845|  1.1495e-05|    0.114719|
|        2760|  4.1189e+01|  4.1189e+01|   -8.987122|  1.1441e-05|    0.114731|
|        2770|  5.9312e+00|  5.9312e+00|   -8.993687|  1.1313e-05|    0.114741|
|        2780|  3.6725e+01|  3.6725e+01|   -8.998058|  1.0999e-05|    0.114746|
|        2790|  1.8949e+01|  1.8949e+01|   -9.000367|  1.0686e-05|    0.114751|
|        2800|  9.7773e+00|  9.7773e+00|   -9.001892|  1.0434e-05|    0.114757|
+-----------------------------------------------------------------------+
|        File Writing Summary       |              Filename             |
+-----------------------------------------------------------------------+
|SU2 binary restart                 |restart_flow_G4.dat                |
|Paraview                           |flow_G4.vtu                        |
|Paraview surface                   |surface_flow_G4.vtu                |
+-----------------------------------------------------------------------+
+-----------------------------------------------------------------------------+
|  Inner_Iter|     Min CFL|     Max CFL|      rms[P]|  Cauchy[CD]|          CD|
+-----------------------------------------------------------------------------+
|        2810|  5.0449e+00|  5.0449e+00|   -9.003013|  1.0174e-05|    0.114763|
|        2820|  3.1237e+01|  3.1237e+01|   -9.007642|  9.8371e-06|    0.114767|
|        2830|  1.6117e+01|  1.6117e+01|   -9.009434|  9.5425e-06|    0.114772|
|        2840|  4.0105e+01|  4.0105e+01|   -9.009824|  9.4003e-06|    0.114781|
|        2850|  4.0105e+01|  4.0105e+01|   -9.014803|  9.3449e-06|    0.114793|
|        2860|  4.0105e+01|  4.0105e+01|   -9.020665|  9.2939e-06|    0.114805|
|        2870|  4.0105e+01|  4.0105e+01|   -9.026378|  9.2440e-06|    0.114817|
|        2880|  4.0105e+01|  4.0105e+01|   -9.031971|  9.1931e-06|    0.114828|
|        2890|  4.0105e+01|  4.0105e+01|   -9.037266|  9.1410e-06|    0.114840|
|        2900|  4.0105e+01|  4.0105e+01|   -9.042509|  9.0854e-06|    0.114851|
|        2910|  4.0105e+01|  4.0105e+01|   -9.047777|  9.0269e-06|    0.114863|
|        2920|  4.0105e+01|  4.0105e+01|   -9.052950|  8.9688e-06|    0.114874|
|        2930|  4.0105e+01|  4.0105e+01|   -9.058158|  8.9129e-06|    0.114885|
|        2940|  4.0105e+01|  4.0105e+01|   -9.063579|  8.8583e-06|    0.114897|
|        2950|  4.0105e+01|  4.0105e+01|   -9.068977|  8.8028e-06|    0.114908|
|        2960|  4.0105e+01|  4.0105e+01|   -9.074154|  8.7455e-06|    0.114919|
|        2970|  4.0105e+01|  4.0105e+01|   -9.079146|  8.6867e-06|    0.114930|
|        2980|  4.0105e+01|  4.0105e+01|   -9.084119|  8.6276e-06|    0.114941|
|        2990|  4.0105e+01|  4.0105e+01|   -9.089160|  8.5694e-06|    0.114952|
|        3000|  4.0105e+01|  4.0105e+01|   -9.094251|  8.5119e-06|    0.114963|
+-----------------------------------------------------------------------+
|        File Writing Summary       |              Filename             |
+-----------------------------------------------------------------------+
|SU2 binary restart                 |restart_flow_G4.dat                |
|Paraview                           |flow_G4.vtu                        |
|Paraview surface                   |surface_flow_G4.vtu                |
+-----------------------------------------------------------------------+
+-----------------------------------------------------------------------------+
|  Inner_Iter|     Min CFL|     Max CFL|      rms[P]|  Cauchy[CD]|          CD|
+-----------------------------------------------------------------------------+
|        3010|  4.0105e+01|  4.0105e+01|   -9.099344|  8.4539e-06|    0.114974|
|        3020|  4.0105e+01|  4.0105e+01|   -9.104341|  8.4716e-06|    0.114984|
|        3030|  4.0105e+01|  4.0105e+01|   -9.109134|  8.6770e-06|    0.114995|
|        3040|  4.0105e+01|  4.0105e+01|   -9.113757|  8.8832e-06|    0.115006|
|        3050|  4.0105e+01|  4.0105e+01|   -9.118402|  9.0288e-06|    0.115016|
|        3060|  4.0105e+01|  4.0105e+01|   -9.123216|  9.1783e-06|    0.115027|
|        3070|  4.0105e+01|  4.0105e+01|   -9.128144|  9.4043e-06|    0.115037|
|        3080|  4.0105e+01|  4.0105e+01|   -9.132995|  9.5880e-06|    0.115047|
|        3090|  4.0105e+01|  4.0105e+01|   -9.137618|  9.6198e-06|    0.115058|
|        3100|  4.0105e+01|  4.0105e+01|   -9.142016|  9.5655e-06|    0.115068|
|        3110|  4.0105e+01|  4.0105e+01|   -9.146318|  9.5065e-06|    0.115078|
|        3120|  4.0105e+01|  4.0105e+01|   -9.150660|  9.4446e-06|    0.115088|
|        3130|  4.0105e+01|  4.0105e+01|   -9.155102|  9.3828e-06|    0.115098|
|        3140|  4.0105e+01|  4.0105e+01|   -9.159603|  9.3225e-06|    0.115108|
|        3150|  4.0105e+01|  4.0105e+01|   -9.164074|  9.2656e-06|    0.115118|
|        3160|  4.0105e+01|  4.0105e+01|   -9.168436|  9.2112e-06|    0.115128|
|        3170|  4.0105e+01|  4.0105e+01|   -9.172667|  9.1560e-06|    0.115137|
|        3180|  4.0105e+01|  4.0105e+01|   -9.176807|  9.0979e-06|    0.115147|
|        3190|  4.0105e+01|  4.0105e+01|   -9.180930|  9.0380e-06|    0.115157|
|        3200|  4.0105e+01|  4.0105e+01|   -9.185085|  8.9787e-06|    0.115166|
+-----------------------------------------------------------------------+
|        File Writing Summary       |              Filename             |
+-----------------------------------------------------------------------+
|SU2 binary restart                 |restart_flow_G4.dat                |
|Paraview                           |flow_G4.vtu                        |
|Paraview surface                   |surface_flow_G4.vtu                |
+-----------------------------------------------------------------------+
+-----------------------------------------------------------------------------+
|  Inner_Iter|     Min CFL|     Max CFL|      rms[P]|  Cauchy[CD]|          CD|
+-----------------------------------------------------------------------------+
|        3210|  4.0105e+01|  4.0105e+01|   -9.189277|  8.9213e-06|    0.115176|
|        3220|  4.0105e+01|  4.0105e+01|   -9.193472|  8.8653e-06|    0.115185|
|        3230|  4.0105e+01|  4.0105e+01|   -9.197630|  8.8094e-06|    0.115195|
|        3240|  4.0105e+01|  4.0105e+01|   -9.201740|  8.7525e-06|    0.115204|
|        3250|  4.0105e+01|  4.0105e+01|   -9.205817|  8.6947e-06|    0.115213|
|        3260|  4.0105e+01|  4.0105e+01|   -9.209890|  8.6371e-06|    0.115222|
|        3270|  4.0105e+01|  4.0105e+01|   -9.213975|  8.5803e-06|    0.115231|
|        3280|  4.0105e+01|  4.0105e+01|   -9.218071|  8.5243e-06|    0.115240|
|        3290|  4.0105e+01|  4.0105e+01|   -9.222165|  8.4685e-06|    0.115249|
|        3300|  4.0105e+01|  4.0105e+01|   -9.226251|  8.4127e-06|    0.115258|
|        3310|  4.0105e+01|  4.0105e+01|   -9.230329|  8.3566e-06|    0.115267|
|        3320|  4.0105e+01|  4.0105e+01|   -9.234408|  8.3006e-06|    0.115276|
|        3330|  4.0105e+01|  4.0105e+01|   -9.238493|  8.2448e-06|    0.115285|
|        3340|  4.0105e+01|  4.0105e+01|   -9.242586|  8.1895e-06|    0.115293|
|        3350|  4.0105e+01|  4.0105e+01|   -9.246685|  8.1345e-06|    0.115302|
|        3360|  4.0105e+01|  4.0105e+01|   -9.250787|  8.0798e-06|    0.115311|
|        3370|  4.0105e+01|  4.0105e+01|   -9.254887|  8.0253e-06|    0.115319|
|        3380|  4.0105e+01|  4.0105e+01|   -9.258984|  7.9709e-06|    0.115328|
|        3390|  4.0105e+01|  4.0105e+01|   -9.263083|  7.9166e-06|    0.115336|
|        3400|  4.0105e+01|  4.0105e+01|   -9.267187|  7.8627e-06|    0.115344|
+-----------------------------------------------------------------------+
|        File Writing Summary       |              Filename             |
+-----------------------------------------------------------------------+
|SU2 binary restart                 |restart_flow_G4.dat                |
|Paraview                           |flow_G4.vtu                        |
|Paraview surface                   |surface_flow_G4.vtu                |
+-----------------------------------------------------------------------+
+-----------------------------------------------------------------------------+
|  Inner_Iter|     Min CFL|     Max CFL|      rms[P]|  Cauchy[CD]|          CD|
+-----------------------------------------------------------------------------+
|        3410|  4.0105e+01|  4.0105e+01|   -9.271300|  7.8090e-06|    0.115353|
|        3420|  4.0105e+01|  4.0105e+01|   -9.275419|  7.7557e-06|    0.115361|
|        3430|  4.0105e+01|  4.0105e+01|   -9.279541|  7.7025e-06|    0.115369|
|        3440|  4.0105e+01|  4.0105e+01|   -9.283659|  7.6496e-06|    0.115377|
|        3450|  4.0105e+01|  4.0105e+01|   -9.287772|  7.5967e-06|    0.115385|
|        3460|  4.0105e+01|  4.0105e+01|   -9.291883|  7.5441e-06|    0.115393|
|        3470|  4.0105e+01|  4.0105e+01|   -9.295993|  7.4916e-06|    0.115401|
|        3480|  4.0105e+01|  4.0105e+01|   -9.300104|  7.4394e-06|    0.115409|
|        3490|  4.0105e+01|  4.0105e+01|   -9.304217|  7.3875e-06|    0.115417|
|        3500|  4.0105e+01|  4.0105e+01|   -9.308331|  7.3358e-06|    0.115425|
|        3510|  4.0105e+01|  4.0105e+01|   -9.312445|  7.2843e-06|    0.115432|
|        3520|  4.0105e+01|  4.0105e+01|   -9.316554|  7.2332e-06|    0.115440|
|        3530|  4.0105e+01|  4.0105e+01|   -9.320655|  7.1822e-06|    0.115448|
|        3540|  4.0105e+01|  4.0105e+01|   -9.324746|  7.1315e-06|    0.115455|
|        3550|  4.0105e+01|  4.0105e+01|   -9.328826|  7.0810e-06|    0.115463|
|        3560|  4.0105e+01|  4.0105e+01|   -9.332894|  7.0307e-06|    0.115470|
|        3570|  4.0105e+01|  4.0105e+01|   -9.336951|  6.9805e-06|    0.115477|
|        3580|  4.0105e+01|  4.0105e+01|   -9.340996|  6.9305e-06|    0.115485|
|        3590|  4.0105e+01|  4.0105e+01|   -9.345031|  6.8808e-06|    0.115492|
|        3600|  4.0105e+01|  4.0105e+01|   -9.349051|  6.8313e-06|    0.115499|
+-----------------------------------------------------------------------+
|        File Writing Summary       |              Filename             |
+-----------------------------------------------------------------------+
|SU2 binary restart                 |restart_flow_G4.dat                |
|Paraview                           |flow_G4.vtu                        |
|Paraview surface                   |surface_flow_G4.vtu                |
+-----------------------------------------------------------------------+
+-----------------------------------------------------------------------------+
|  Inner_Iter|     Min CFL|     Max CFL|      rms[P]|  Cauchy[CD]|          CD|
+-----------------------------------------------------------------------------+
|        3610|  4.0105e+01|  4.0105e+01|   -9.353053|  6.7821e-06|    0.115506|
|        3620|  4.0105e+01|  4.0105e+01|   -9.357035|  6.7331e-06|    0.115513|
|        3630|  4.0105e+01|  4.0105e+01|   -9.360994|  6.6844e-06|    0.115520|
|        3640|  4.0105e+01|  4.0105e+01|   -9.364931|  6.6358e-06|    0.115528|
|        3650|  4.0105e+01|  4.0105e+01|   -9.368851|  6.5875e-06|    0.115534|
|        3660|  4.0105e+01|  4.0105e+01|   -9.372756|  6.5394e-06|    0.115541|
|        3670|  4.0105e+01|  4.0105e+01|   -9.376647|  6.4916e-06|    0.115548|
|        3680|  4.0105e+01|  4.0105e+01|   -9.380521|  6.4441e-06|    0.115555|
|        3690|  4.0105e+01|  4.0105e+01|   -9.384377|  6.3970e-06|    0.115562|
|        3700|  4.0105e+01|  4.0105e+01|   -9.388215|  6.3502e-06|    0.115568|
|        3710|  4.0105e+01|  4.0105e+01|   -9.392035|  6.3037e-06|    0.115575|
|        3720|  4.0105e+01|  4.0105e+01|   -9.395841|  6.2575e-06|    0.115582|
|        3730|  4.0105e+01|  4.0105e+01|   -9.399633|  6.2117e-06|    0.115588|
|        3740|  4.0105e+01|  4.0105e+01|   -9.403415|  6.1661e-06|    0.115595|
|        3750|  4.0105e+01|  4.0105e+01|   -9.407187|  6.1208e-06|    0.115601|
|        3760|  4.0105e+01|  4.0105e+01|   -9.410952|  6.0758e-06|    0.115608|
|        3770|  4.0105e+01|  4.0105e+01|   -9.414710|  6.0312e-06|    0.115614|
|        3780|  4.0105e+01|  4.0105e+01|   -9.418462|  5.9870e-06|    0.115620|
|        3790|  4.0105e+01|  4.0105e+01|   -9.422210|  5.9431e-06|    0.115627|
|        3800|  4.0105e+01|  4.0105e+01|   -9.425955|  5.8996e-06|    0.115633|
+-----------------------------------------------------------------------+
|        File Writing Summary       |              Filename             |
+-----------------------------------------------------------------------+
|SU2 binary restart                 |restart_flow_G4.dat                |
|Paraview                           |flow_G4.vtu                        |
|Paraview surface                   |surface_flow_G4.vtu                |
+-----------------------------------------------------------------------+
+-----------------------------------------------------------------------------+
|  Inner_Iter|     Min CFL|     Max CFL|      rms[P]|  Cauchy[CD]|          CD|
+-----------------------------------------------------------------------------+
|        3810|  4.0105e+01|  4.0105e+01|   -9.429698|  5.8565e-06|    0.115639|
|        3820|  4.0105e+01|  4.0105e+01|   -9.433439|  5.8137e-06|    0.115645|
|        3830|  4.0105e+01|  4.0105e+01|   -9.437178|  5.7713e-06|    0.115651|
|        3840|  4.0105e+01|  4.0105e+01|   -9.440914|  5.7292e-06|    0.115657|
|        3850|  4.0105e+01|  4.0105e+01|   -9.444649|  5.6874e-06|    0.115663|
|        3860|  4.0105e+01|  4.0105e+01|   -9.448383|  5.6459e-06|    0.115669|
|        3870|  4.0105e+01|  4.0105e+01|   -9.452119|  5.6047e-06|    0.115675|
|        3880|  4.0105e+01|  4.0105e+01|   -9.455857|  5.5638e-06|    0.115681|
|        3890|  4.0105e+01|  4.0105e+01|   -9.459596|  5.5232e-06|    0.115687|
|        3900|  4.0105e+01|  4.0105e+01|   -9.463337|  5.4829e-06|    0.115693|
|        3910|  4.0105e+01|  4.0105e+01|   -9.467078|  5.4430e-06|    0.115699|
|        3920|  4.0105e+01|  4.0105e+01|   -9.470818|  5.4033e-06|    0.115704|
|        3930|  4.0105e+01|  4.0105e+01|   -9.474557|  5.3638e-06|    0.115710|
|        3940|  4.0105e+01|  4.0105e+01|   -9.478296|  5.3246e-06|    0.115716|
|        3950|  4.0105e+01|  4.0105e+01|   -9.482037|  5.2856e-06|    0.115721|
|        3960|  4.0105e+01|  4.0105e+01|   -9.485779|  5.2468e-06|    0.115727|
|        3970|  4.0105e+01|  4.0105e+01|   -9.489522|  5.2083e-06|    0.115732|
|        3980|  4.0105e+01|  4.0105e+01|   -9.493265|  5.1699e-06|    0.115738|
|        3990|  4.0105e+01|  4.0105e+01|   -9.497006|  5.1319e-06|    0.115743|
|        4000|  4.0105e+01|  4.0105e+01|   -9.500745|  5.0940e-06|    0.115749|
+-----------------------------------------------------------------------+
|        File Writing Summary       |              Filename             |
+-----------------------------------------------------------------------+
|SU2 binary restart                 |restart_flow_G4.dat                |
|Paraview                           |flow_G4.vtu                        |
|Paraview surface                   |surface_flow_G4.vtu                |
+-----------------------------------------------------------------------+
+-----------------------------------------------------------------------------+
|  Inner_Iter|     Min CFL|     Max CFL|      rms[P]|  Cauchy[CD]|          CD|
+-----------------------------------------------------------------------------+
|        4010|  4.0105e+01|  4.0105e+01|   -9.504481|  5.0564e-06|    0.115754|
|        4020|  4.0105e+01|  4.0105e+01|   -9.508216|  5.0190e-06|    0.115759|
|        4030|  4.0105e+01|  4.0105e+01|   -9.511949|  4.9817e-06|    0.115765|
|        4040|  4.0105e+01|  4.0105e+01|   -9.515681|  4.9447e-06|    0.115770|
|        4050|  4.0105e+01|  4.0105e+01|   -9.519412|  4.9079e-06|    0.115775|
|        4060|  4.0105e+01|  4.0105e+01|   -9.523141|  4.8714e-06|    0.115780|
|        4070|  4.0105e+01|  4.0105e+01|   -9.526868|  4.8350e-06|    0.115785|
|        4080|  4.0105e+01|  4.0105e+01|   -9.530589|  4.7988e-06|    0.115790|
|        4090|  4.0105e+01|  4.0105e+01|   -9.534304|  4.7629e-06|    0.115795|
|        4100|  4.0105e+01|  4.0105e+01|   -9.538013|  4.7272e-06|    0.115800|
|        4110|  4.0105e+01|  4.0105e+01|   -9.541718|  4.6917e-06|    0.115805|
|        4120|  4.0105e+01|  4.0105e+01|   -9.545419|  4.6564e-06|    0.115810|
|        4130|  4.0105e+01|  4.0105e+01|   -9.549115|  4.6214e-06|    0.115815|
|        4140|  4.0105e+01|  4.0105e+01|   -9.552806|  4.5866e-06|    0.115820|
|        4150|  4.0105e+01|  4.0105e+01|   -9.556492|  4.5520e-06|    0.115825|
|        4160|  4.0105e+01|  4.0105e+01|   -9.560172|  4.5176e-06|    0.115829|
|        4170|  4.0105e+01|  4.0105e+01|   -9.563845|  4.4835e-06|    0.115834|
|        4180|  4.0105e+01|  4.0105e+01|   -9.567512|  4.4496e-06|    0.115839|
|        4190|  4.0105e+01|  4.0105e+01|   -9.571174|  4.4159e-06|    0.115844|
|        4200|  4.0105e+01|  4.0105e+01|   -9.574830|  4.3825e-06|    0.115848|
+-----------------------------------------------------------------------+
|        File Writing Summary       |              Filename             |
+-----------------------------------------------------------------------+
|SU2 binary restart                 |restart_flow_G4.dat                |
|Paraview                           |flow_G4.vtu                        |
|Paraview surface                   |surface_flow_G4.vtu                |
+-----------------------------------------------------------------------+
+-----------------------------------------------------------------------------+
|  Inner_Iter|     Min CFL|     Max CFL|      rms[P]|  Cauchy[CD]|          CD|
+-----------------------------------------------------------------------------+
|        4210|  4.0105e+01|  4.0105e+01|   -9.578478|  4.3492e-06|    0.115853|
|        4220|  4.0105e+01|  4.0105e+01|   -9.582120|  4.3163e-06|    0.115857|
|        4230|  4.0105e+01|  4.0105e+01|   -9.585756|  4.2835e-06|    0.115862|
|        4240|  4.0105e+01|  4.0105e+01|   -9.589385|  4.2509e-06|    0.115866|
|        4250|  4.0105e+01|  4.0105e+01|   -9.593008|  4.2186e-06|    0.115871|
|        4260|  4.0105e+01|  4.0105e+01|   -9.596624|  4.1865e-06|    0.115875|
|        4270|  4.0105e+01|  4.0105e+01|   -9.600232|  4.1546e-06|    0.115880|
|        4280|  4.0105e+01|  4.0105e+01|   -9.603833|  4.1230e-06|    0.115884|
|        4290|  4.0105e+01|  4.0105e+01|   -9.607426|  4.0915e-06|    0.115888|
|        4300|  4.0105e+01|  4.0105e+01|   -9.611012|  4.0603e-06|    0.115893|
|        4310|  4.0105e+01|  4.0105e+01|   -9.614593|  4.0293e-06|    0.115897|
|        4320|  4.0105e+01|  4.0105e+01|   -9.618168|  3.9985e-06|    0.115901|
|        4330|  4.0105e+01|  4.0105e+01|   -9.621737|  3.9680e-06|    0.115905|
|        4340|  4.0105e+01|  4.0105e+01|   -9.625300|  3.9377e-06|    0.115909|
|        4350|  4.0105e+01|  4.0105e+01|   -9.628857|  3.9076e-06|    0.115913|
|        4360|  4.0105e+01|  4.0105e+01|   -9.632408|  3.8777e-06|    0.115918|
|        4370|  4.0105e+01|  4.0105e+01|   -9.635953|  3.8481e-06|    0.115922|
|        4380|  4.0105e+01|  4.0105e+01|   -9.639493|  3.8186e-06|    0.115926|
|        4390|  4.0105e+01|  4.0105e+01|   -9.643030|  3.7894e-06|    0.115930|
|        4400|  4.0105e+01|  4.0105e+01|   -9.646563|  3.7604e-06|    0.115934|
+-----------------------------------------------------------------------+
|        File Writing Summary       |              Filename             |
+-----------------------------------------------------------------------+
|SU2 binary restart                 |restart_flow_G4.dat                |
|Paraview                           |flow_G4.vtu                        |
|Paraview surface                   |surface_flow_G4.vtu                |
+-----------------------------------------------------------------------+
+-----------------------------------------------------------------------------+
|  Inner_Iter|     Min CFL|     Max CFL|      rms[P]|  Cauchy[CD]|          CD|
+-----------------------------------------------------------------------------+
|        4410|  4.0105e+01|  4.0105e+01|   -9.650092|  3.7316e-06|    0.115938|
|        4420|  4.0105e+01|  4.0105e+01|   -9.653617|  3.7031e-06|    0.115941|
|        4430|  4.0105e+01|  4.0105e+01|   -9.657139|  3.6748e-06|    0.115945|
|        4440|  4.0105e+01|  4.0105e+01|   -9.660659|  3.6467e-06|    0.115949|
|        4450|  4.0105e+01|  4.0105e+01|   -9.664176|  3.6188e-06|    0.115953|
|        4460|  4.0105e+01|  4.0105e+01|   -9.667692|  3.5911e-06|    0.115957|
|        4470|  4.0105e+01|  4.0105e+01|   -9.671206|  3.5636e-06|    0.115961|
|        4480|  4.0105e+01|  4.0105e+01|   -9.674719|  3.5364e-06|    0.115964|
|        4490|  4.0105e+01|  4.0105e+01|   -9.678231|  3.5093e-06|    0.115968|
|        4500|  4.0105e+01|  4.0105e+01|   -9.681742|  3.4825e-06|    0.115972|
|        4510|  4.0105e+01|  4.0105e+01|   -9.685253|  3.4558e-06|    0.115975|
|        4520|  4.0105e+01|  4.0105e+01|   -9.688763|  3.4294e-06|    0.115979|
|        4530|  4.0105e+01|  4.0105e+01|   -9.692272|  3.4032e-06|    0.115983|
|        4540|  4.0105e+01|  4.0105e+01|   -9.695781|  3.3772e-06|    0.115986|
|        4550|  4.0105e+01|  4.0105e+01|   -9.699290|  3.3513e-06|    0.115990|
|        4560|  4.0105e+01|  4.0105e+01|   -9.702799|  3.3257e-06|    0.115993|
|        4570|  4.0105e+01|  4.0105e+01|   -9.706308|  3.3002e-06|    0.115997|
|        4580|  4.0105e+01|  4.0105e+01|   -9.709817|  3.2750e-06|    0.116000|
|        4590|  4.0105e+01|  4.0105e+01|   -9.713326|  3.2500e-06|    0.116004|
|        4600|  4.0105e+01|  4.0105e+01|   -9.716833|  3.2251e-06|    0.116007|
+-----------------------------------------------------------------------+
|        File Writing Summary       |              Filename             |
+-----------------------------------------------------------------------+
|SU2 binary restart                 |restart_flow_G4.dat                |
|Paraview                           |flow_G4.vtu                        |
|Paraview surface                   |surface_flow_G4.vtu                |
+-----------------------------------------------------------------------+
+-----------------------------------------------------------------------------+
|  Inner_Iter|     Min CFL|     Max CFL|      rms[P]|  Cauchy[CD]|          CD|
+-----------------------------------------------------------------------------+
|        4610|  4.0105e+01|  4.0105e+01|   -9.720341|  3.2005e-06|    0.116010|
|        4620|  4.0105e+01|  4.0105e+01|   -9.723849|  3.1760e-06|    0.116014|
|        4630|  4.0105e+01|  4.0105e+01|   -9.727358|  3.1518e-06|    0.116017|
|        4640|  4.0105e+01|  4.0105e+01|   -9.730867|  3.1277e-06|    0.116020|
|        4650|  4.0105e+01|  4.0105e+01|   -9.734374|  3.1038e-06|    0.116024|
|        4660|  4.0105e+01|  4.0105e+01|   -9.737881|  3.0801e-06|    0.116027|
|        4670|  4.0105e+01|  4.0105e+01|   -9.741388|  3.0566e-06|    0.116030|
|        4680|  4.0105e+01|  4.0105e+01|   -9.744895|  3.0332e-06|    0.116033|
|        4690|  4.0105e+01|  4.0105e+01|   -9.748402|  3.0100e-06|    0.116036|
|        4700|  4.0105e+01|  4.0105e+01|   -9.751907|  2.9870e-06|    0.116040|
|        4710|  4.0105e+01|  4.0105e+01|   -9.755410|  2.9642e-06|    0.116043|
|        4720|  4.0105e+01|  4.0105e+01|   -9.758910|  2.9416e-06|    0.116046|
|        4730|  4.0105e+01|  4.0105e+01|   -9.762409|  2.9191e-06|    0.116049|
|        4740|  4.0105e+01|  4.0105e+01|   -9.765905|  2.8968e-06|    0.116052|
|        4750|  4.0105e+01|  4.0105e+01|   -9.769401|  2.8747e-06|    0.116055|
|        4760|  4.0105e+01|  4.0105e+01|   -9.772895|  2.8527e-06|    0.116058|
|        4770|  4.0105e+01|  4.0105e+01|   -9.776388|  2.8309e-06|    0.116061|
|        4780|  4.0105e+01|  4.0105e+01|   -9.779879|  2.8093e-06|    0.116064|
|        4790|  4.0105e+01|  4.0105e+01|   -9.783368|  2.7878e-06|    0.116067|
|        4800|  4.0105e+01|  4.0105e+01|   -9.786855|  2.7665e-06|    0.116070|
+-----------------------------------------------------------------------+
|        File Writing Summary       |              Filename             |
+-----------------------------------------------------------------------+
|SU2 binary restart                 |restart_flow_G4.dat                |
|Paraview                           |flow_G4.vtu                        |
|Paraview surface                   |surface_flow_G4.vtu                |
+-----------------------------------------------------------------------+
+-----------------------------------------------------------------------------+
|  Inner_Iter|     Min CFL|     Max CFL|      rms[P]|  Cauchy[CD]|          CD|
+-----------------------------------------------------------------------------+
|        4810|  4.0105e+01|  4.0105e+01|   -9.790340|  2.7454e-06|    0.116073|
|        4820|  4.0105e+01|  4.0105e+01|   -9.793823|  2.7244e-06|    0.116076|
|        4830|  4.0105e+01|  4.0105e+01|   -9.797304|  2.7036e-06|    0.116079|
|        4840|  4.0105e+01|  4.0105e+01|   -9.800783|  2.6830e-06|    0.116081|
|        4850|  4.0105e+01|  4.0105e+01|   -9.804260|  2.6625e-06|    0.116084|
|        4860|  4.0105e+01|  4.0105e+01|   -9.807735|  2.6421e-06|    0.116087|
|        4870|  4.0105e+01|  4.0105e+01|   -9.811209|  2.6219e-06|    0.116090|
|        4880|  4.0105e+01|  4.0105e+01|   -9.814682|  2.6019e-06|    0.116093|
|        4890|  4.0105e+01|  4.0105e+01|   -9.818152|  2.5820e-06|    0.116095|
|        4900|  4.0105e+01|  4.0105e+01|   -9.821621|  2.5623e-06|    0.116098|
|        4910|  4.0105e+01|  4.0105e+01|   -9.825089|  2.5427e-06|    0.116101|
|        4920|  4.0105e+01|  4.0105e+01|   -9.828555|  2.5233e-06|    0.116103|
|        4930|  4.0105e+01|  4.0105e+01|   -9.832021|  2.5040e-06|    0.116106|
|        4940|  4.0105e+01|  4.0105e+01|   -9.835485|  2.4849e-06|    0.116109|
|        4950|  4.0105e+01|  4.0105e+01|   -9.838947|  2.4659e-06|    0.116111|
|        4960|  4.0105e+01|  4.0105e+01|   -9.842408|  2.4471e-06|    0.116114|
|        4970|  4.0105e+01|  4.0105e+01|   -9.845869|  2.4284e-06|    0.116116|
|        4980|  4.0105e+01|  4.0105e+01|   -9.849329|  2.4098e-06|    0.116119|
|        4990|  4.0105e+01|  4.0105e+01|   -9.852788|  2.3914e-06|    0.116121|
|        5000|  4.0105e+01|  4.0105e+01|   -9.856248|  2.3732e-06|    0.116124|
+-----------------------------------------------------------------------+
|        File Writing Summary       |              Filename             |
+-----------------------------------------------------------------------+
|SU2 binary restart                 |restart_flow_G4.dat                |
|Paraview                           |flow_G4.vtu                        |
|Paraview surface                   |surface_flow_G4.vtu                |
+-----------------------------------------------------------------------+
+-----------------------------------------------------------------------------+
|  Inner_Iter|     Min CFL|     Max CFL|      rms[P]|  Cauchy[CD]|          CD|
+-----------------------------------------------------------------------------+
|        5010|  4.0105e+01|  4.0105e+01|   -9.859706|  2.3550e-06|    0.116126|
|        5020|  4.0105e+01|  4.0105e+01|   -9.863164|  2.3370e-06|    0.116129|
|        5030|  4.0105e+01|  4.0105e+01|   -9.866620|  2.3192e-06|    0.116131|
|        5040|  4.0105e+01|  4.0105e+01|   -9.870076|  2.3015e-06|    0.116134|
|        5050|  4.0105e+01|  4.0105e+01|   -9.873531|  2.2839e-06|    0.116136|
|        5060|  4.0105e+01|  4.0105e+01|   -9.876986|  2.2665e-06|    0.116139|
|        5070|  4.0105e+01|  4.0105e+01|   -9.880441|  2.2491e-06|    0.116141|
|        5080|  4.0105e+01|  4.0105e+01|   -9.883897|  2.2320e-06|    0.116143|
|        5090|  4.0105e+01|  4.0105e+01|   -9.887352|  2.2149e-06|    0.116146|
|        5100|  4.0105e+01|  4.0105e+01|   -9.890807|  2.1980e-06|    0.116148|
|        5110|  4.0105e+01|  4.0105e+01|   -9.894260|  2.1813e-06|    0.116150|
|        5120|  4.0105e+01|  4.0105e+01|   -9.897713|  2.1646e-06|    0.116153|
|        5130|  4.0105e+01|  4.0105e+01|   -9.901165|  2.1481e-06|    0.116155|
|        5140|  4.0105e+01|  4.0105e+01|   -9.904618|  2.1317e-06|    0.116157|
|        5150|  4.0105e+01|  4.0105e+01|   -9.908070|  2.1155e-06|    0.116159|
|        5160|  4.0105e+01|  4.0105e+01|   -9.911522|  2.0993e-06|    0.116162|
|        5170|  4.0105e+01|  4.0105e+01|   -9.914973|  2.0833e-06|    0.116164|
|        5180|  4.0105e+01|  4.0105e+01|   -9.918424|  2.0674e-06|    0.116166|
|        5190|  4.0105e+01|  4.0105e+01|   -9.921874|  2.0516e-06|    0.116168|
|        5200|  4.0105e+01|  4.0105e+01|   -9.925322|  2.0360e-06|    0.116170|
+-----------------------------------------------------------------------+
|        File Writing Summary       |              Filename             |
+-----------------------------------------------------------------------+
|SU2 binary restart                 |restart_flow_G4.dat                |
|Paraview                           |flow_G4.vtu                        |
|Paraview surface                   |surface_flow_G4.vtu                |
+-----------------------------------------------------------------------+
+-----------------------------------------------------------------------------+
|  Inner_Iter|     Min CFL|     Max CFL|      rms[P]|  Cauchy[CD]|          CD|
+-----------------------------------------------------------------------------+
|        5210|  4.0105e+01|  4.0105e+01|   -9.928770|  2.0205e-06|    0.116172|
|        5220|  4.0105e+01|  4.0105e+01|   -9.932218|  2.0050e-06|    0.116175|
|        5230|  4.0105e+01|  4.0105e+01|   -9.935666|  1.9897e-06|    0.116177|
|        5240|  4.0105e+01|  4.0105e+01|   -9.939112|  1.9745e-06|    0.116179|
|        5250|  4.0105e+01|  4.0105e+01|   -9.942557|  1.9595e-06|    0.116181|
|        5260|  4.0105e+01|  4.0105e+01|   -9.946001|  1.9445e-06|    0.116183|
|        5270|  4.0105e+01|  4.0105e+01|   -9.949443|  1.9296e-06|    0.116185|
|        5280|  4.0105e+01|  4.0105e+01|   -9.952885|  1.9149e-06|    0.116187|
|        5290|  4.0105e+01|  4.0105e+01|   -9.956327|  1.9003e-06|    0.116189|
|        5300|  4.0105e+01|  4.0105e+01|   -9.959767|  1.8858e-06|    0.116191|
|        5310|  4.0105e+01|  4.0105e+01|   -9.963206|  1.8713e-06|    0.116193|
|        5320|  4.0105e+01|  4.0105e+01|   -9.966645|  1.8570e-06|    0.116195|
|        5330|  4.0105e+01|  4.0105e+01|   -9.970082|  1.8428e-06|    0.116197|
|        5340|  4.0105e+01|  4.0105e+01|   -9.973518|  1.8287e-06|    0.116199|
|        5350|  4.0105e+01|  4.0105e+01|   -9.976953|  1.8147e-06|    0.116201|
|        5360|  4.0105e+01|  4.0105e+01|   -9.980387|  1.8008e-06|    0.116203|
|        5370|  4.0105e+01|  4.0105e+01|   -9.983820|  1.7870e-06|    0.116204|
|        5380|  4.0105e+01|  4.0105e+01|   -9.987253|  1.7734e-06|    0.116206|
|        5390|  4.0105e+01|  4.0105e+01|   -9.990685|  1.7598e-06|    0.116208|
|        5400|  4.0105e+01|  4.0105e+01|   -9.994116|  1.7463e-06|    0.116210|
+-----------------------------------------------------------------------+
|        File Writing Summary       |              Filename             |
+-----------------------------------------------------------------------+
|SU2 binary restart                 |restart_flow_G4.dat                |
|Paraview                           |flow_G4.vtu                        |
|Paraview surface                   |surface_flow_G4.vtu                |
+-----------------------------------------------------------------------+
+-----------------------------------------------------------------------------+
|  Inner_Iter|     Min CFL|     Max CFL|      rms[P]|  Cauchy[CD]|          CD|
+-----------------------------------------------------------------------------+
|        5410|  4.0105e+01|  4.0105e+01|   -9.997546|  1.7329e-06|    0.116212|
|        5420|  4.0105e+01|  4.0105e+01|  -10.000975|  1.7196e-06|    0.116214|
|        5430|  4.0105e+01|  4.0105e+01|  -10.004403|  1.7065e-06|    0.116216|
|        5440|  4.0105e+01|  4.0105e+01|  -10.007830|  1.6934e-06|    0.116217|
|        5450|  4.0105e+01|  4.0105e+01|  -10.011255|  1.6804e-06|    0.116219|
|        5460|  4.0105e+01|  4.0105e+01|  -10.014679|  1.6675e-06|    0.116221|
|        5470|  4.0105e+01|  4.0105e+01|  -10.018103|  1.6547e-06|    0.116223|
|        5480|  4.0105e+01|  4.0105e+01|  -10.021528|  1.6420e-06|    0.116224|
|        5490|  4.0105e+01|  4.0105e+01|  -10.024952|  1.6294e-06|    0.116226|
|        5500|  4.0105e+01|  4.0105e+01|  -10.028374|  1.6169e-06|    0.116228|
|        5510|  4.0105e+01|  4.0105e+01|  -10.031794|  1.6045e-06|    0.116229|
|        5520|  4.0105e+01|  4.0105e+01|  -10.035212|  1.5922e-06|    0.116231|
|        5530|  4.0105e+01|  4.0105e+01|  -10.038628|  1.5800e-06|    0.116233|
|        5540|  4.0105e+01|  4.0105e+01|  -10.042043|  1.5679e-06|    0.116235|
|        5550|  4.0105e+01|  4.0105e+01|  -10.045458|  1.5559e-06|    0.116236|
|        5560|  4.0105e+01|  4.0105e+01|  -10.048872|  1.5439e-06|    0.116238|
|        5570|  4.0105e+01|  4.0105e+01|  -10.052285|  1.5321e-06|    0.116239|
|        5580|  4.0105e+01|  4.0105e+01|  -10.055697|  1.5203e-06|    0.116241|
|        5590|  4.0105e+01|  4.0105e+01|  -10.059107|  1.5087e-06|    0.116243|
|        5600|  4.0105e+01|  4.0105e+01|  -10.062516|  1.4971e-06|    0.116244|
+-----------------------------------------------------------------------+
|        File Writing Summary       |              Filename             |
+-----------------------------------------------------------------------+
|SU2 binary restart                 |restart_flow_G4.dat                |
|Paraview                           |flow_G4.vtu                        |
|Paraview surface                   |surface_flow_G4.vtu                |
+-----------------------------------------------------------------------+
+-----------------------------------------------------------------------------+
|  Inner_Iter|     Min CFL|     Max CFL|      rms[P]|  Cauchy[CD]|          CD|
+-----------------------------------------------------------------------------+
|        5610|  4.0105e+01|  4.0105e+01|  -10.065923|  1.4856e-06|    0.116246|
|        5620|  4.0105e+01|  4.0105e+01|  -10.069329|  1.4742e-06|    0.116247|
|        5630|  4.0105e+01|  4.0105e+01|  -10.072734|  1.4629e-06|    0.116249|
|        5640|  4.0105e+01|  4.0105e+01|  -10.076137|  1.4516e-06|    0.116250|
|        5650|  4.0105e+01|  4.0105e+01|  -10.079540|  1.4405e-06|    0.116252|
|        5660|  4.0105e+01|  4.0105e+01|  -10.082941|  1.4294e-06|    0.116253|
|        5670|  4.0105e+01|  4.0105e+01|  -10.086341|  1.4184e-06|    0.116255|
|        5680|  4.0105e+01|  4.0105e+01|  -10.089741|  1.4075e-06|    0.116256|
|        5690|  4.0105e+01|  4.0105e+01|  -10.093139|  1.3967e-06|    0.116258|
|        5700|  4.0105e+01|  4.0105e+01|  -10.096536|  1.3860e-06|    0.116259|
|        5710|  4.0105e+01|  4.0105e+01|  -10.099932|  1.3753e-06|    0.116261|
|        5720|  4.0105e+01|  4.0105e+01|  -10.103328|  1.3647e-06|    0.116262|
|        5730|  4.0105e+01|  4.0105e+01|  -10.106723|  1.3542e-06|    0.116264|
|        5740|  4.0105e+01|  4.0105e+01|  -10.110117|  1.3438e-06|    0.116265|
|        5750|  4.0105e+01|  4.0105e+01|  -10.113510|  1.3335e-06|    0.116267|
|        5760|  4.0105e+01|  4.0105e+01|  -10.116903|  1.3232e-06|    0.116268|
|        5770|  4.0105e+01|  4.0105e+01|  -10.120295|  1.3130e-06|    0.116269|
|        5780|  4.0105e+01|  4.0105e+01|  -10.123687|  1.3029e-06|    0.116271|
|        5790|  4.0105e+01|  4.0105e+01|  -10.127077|  1.2929e-06|    0.116272|
|        5800|  4.0105e+01|  4.0105e+01|  -10.130466|  1.2830e-06|    0.116273|
+-----------------------------------------------------------------------+
|        File Writing Summary       |              Filename             |
+-----------------------------------------------------------------------+
|SU2 binary restart                 |restart_flow_G4.dat                |
|Paraview                           |flow_G4.vtu                        |
|Paraview surface                   |surface_flow_G4.vtu                |
+-----------------------------------------------------------------------+
+-----------------------------------------------------------------------------+
|  Inner_Iter|     Min CFL|     Max CFL|      rms[P]|  Cauchy[CD]|          CD|
+-----------------------------------------------------------------------------+
|        5810|  4.0105e+01|  4.0105e+01|  -10.133856|  1.2731e-06|    0.116275|
|        5820|  4.0105e+01|  4.0105e+01|  -10.137245|  1.2633e-06|    0.116276|
|        5830|  4.0105e+01|  4.0105e+01|  -10.140634|  1.2536e-06|    0.116277|
|        5840|  4.0105e+01|  4.0105e+01|  -10.144023|  1.2440e-06|    0.116279|
|        5850|  4.0105e+01|  4.0105e+01|  -10.147411|  1.2344e-06|    0.116280|
|        5860|  4.0105e+01|  4.0105e+01|  -10.150798|  1.2250e-06|    0.116281|
|        5870|  4.0105e+01|  4.0105e+01|  -10.154185|  1.2156e-06|    0.116283|
|        5880|  4.0105e+01|  4.0105e+01|  -10.157571|  1.2062e-06|    0.116284|
|        5890|  4.0105e+01|  4.0105e+01|  -10.160957|  1.1970e-06|    0.116285|
|        5900|  4.0105e+01|  4.0105e+01|  -10.164343|  1.1878e-06|    0.116286|
|        5910|  4.0105e+01|  4.0105e+01|  -10.167728|  1.1787e-06|    0.116288|
|        5920|  4.0105e+01|  4.0105e+01|  -10.171114|  1.1696e-06|    0.116289|
|        5930|  4.0105e+01|  4.0105e+01|  -10.174499|  1.1606e-06|    0.116290|
|        5940|  4.0105e+01|  4.0105e+01|  -10.177883|  1.1517e-06|    0.116291|
|        5950|  4.0105e+01|  4.0105e+01|  -10.181268|  1.1429e-06|    0.116293|
|        5960|  4.0105e+01|  4.0105e+01|  -10.184652|  1.1341e-06|    0.116294|
|        5970|  4.0105e+01|  4.0105e+01|  -10.188036|  1.1254e-06|    0.116295|
|        5980|  4.0105e+01|  4.0105e+01|  -10.191418|  1.1168e-06|    0.116296|
|        5990|  4.0105e+01|  4.0105e+01|  -10.194801|  1.1083e-06|    0.116297|
|        6000|  4.0105e+01|  4.0105e+01|  -10.198185|  1.0998e-06|    0.116299|
+-----------------------------------------------------------------------+
|        File Writing Summary       |              Filename             |
+-----------------------------------------------------------------------+
|SU2 binary restart                 |restart_flow_G4.dat                |
|Paraview                           |flow_G4.vtu                        |
|Paraview surface                   |surface_flow_G4.vtu                |
+-----------------------------------------------------------------------+
+-----------------------------------------------------------------------------+
|  Inner_Iter|     Min CFL|     Max CFL|      rms[P]|  Cauchy[CD]|          CD|
+-----------------------------------------------------------------------------+
|        6010|  4.0105e+01|  4.0105e+01|  -10.201572|  1.0913e-06|    0.116300|
|        6020|  4.0105e+01|  4.0105e+01|  -10.204959|  1.0830e-06|    0.116301|
|        6030|  4.0105e+01|  4.0105e+01|  -10.208345|  1.0747e-06|    0.116302|
|        6040|  4.0105e+01|  4.0105e+01|  -10.211730|  1.0664e-06|    0.116303|
|        6050|  4.0105e+01|  4.0105e+01|  -10.215113|  1.0583e-06|    0.116304|
|        6060|  4.0105e+01|  4.0105e+01|  -10.218495|  1.0501e-06|    0.116305|
|        6070|  4.0105e+01|  4.0105e+01|  -10.221878|  1.0421e-06|    0.116306|
|        6080|  4.0105e+01|  4.0105e+01|  -10.225263|  1.0341e-06|    0.116308|
|        6090|  4.0105e+01|  4.0105e+01|  -10.228649|  1.0262e-06|    0.116309|
|        6100|  4.0105e+01|  4.0105e+01|  -10.232036|  1.0184e-06|    0.116310|
|        6110|  4.0105e+01|  4.0105e+01|  -10.235423|  1.0106e-06|    0.116311|
|        6120|  4.0105e+01|  4.0105e+01|  -10.238810|  1.0028e-06|    0.116312|
|        6124|  4.0105e+01|  4.0105e+01|  -10.240164|  9.9976e-07|    0.116312|

----------------------------- Solver Exit -------------------------------
All convergence criteria satisfied.
+-----------------------------------------------------------------------+
|      Convergence Field     |     Value    |   Criterion  |  Converged |
+-----------------------------------------------------------------------+
|                      rms[P]|      -10.2402|          < -9|         Yes|
|                  Cauchy[CD]|   9.99756e-07|       < 1e-06|         Yes|
+-----------------------------------------------------------------------+
-------------------------------------------------------------------------
+-----------------------------------------------------------------------+
|        File Writing Summary       |              Filename             |
+-----------------------------------------------------------------------+
|SU2 binary restart                 |restart_flow_G4.dat                |
|Paraview                           |flow_G4.vtu                        |
|Paraview surface                   |surface_flow_G4.vtu                |
+-----------------------------------------------------------------------+

------------------------- Solver Postprocessing -------------------------
Deleted CNumerics container.
Deleted CIntegration container.
Deleted CSolver container.
Deleted CIteration container.
Deleted CInterface container.
Deleted CGeometry container.
Deleted CFreeFormDefBox class.
Deleted CSurfaceMovement class.
Deleted CVolumetricMovement class.
Deleted CConfig container.
Deleted nInst container.
Deleted COutput class.
-------------------------------------------------------------------------

------------------------- Exit Success (SU2_CFD) ------------------------

