
-------------------------------------------------------------------------
|    ___ _   _ ___                                                      |
|   / __| | | |_  )   Release 7.4.0 "Blackbird"                         |
|   \__ \ |_| |/ /                                                      |
|   |___/\___//___|   Suite (Computational Fluid Dynamics Code)         |
|                                                                       |
-------------------------------------------------------------------------
| SU2 Project Website: https://su2code.github.io                        |
|                                                                       |
| The SU2 Project is maintained by the SU2 Foundation                   |
| (http://su2foundation.org)                                            |
-------------------------------------------------------------------------
| Copyright 2012-2022, SU2 Contributors                                 |
|                                                                       |
| SU2 is free software; you can redistribute it and/or                  |
| modify it under the terms of the GNU Lesser General Public            |
| License as published by the Free Software Foundation; either          |
| version 2.1 of the License, or (at your option) any later version.    |
|                                                                       |
| SU2 is distributed in the hope that it will be useful,                |
| but WITHOUT ANY WARRANTY; without even the implied warranty of        |
| MERCHANTABILITY or FITNESS FOR A PARTICULAR PURPOSE. See the GNU      |
| Lesser General Public License for more details.                       |
|                                                                       |
| You should have received a copy of the GNU Lesser General Public      |
| License along with SU2. If not, see <http://www.gnu.org/licenses/>.   |
-------------------------------------------------------------------------

Parsing config file for zone 0

----------------- Physical Case Definition ( Zone 0 ) -------------------
Incompressible RANS equations.
Turbulence model: Spalart-Allmaras-noft2
Hybrid RANS/LES: No Hybrid RANS/LES
Reading and writing binary SU2 native restart files.
Read flow solution from: ../../../O1/caseG2/cfdG2/restart_flow_G2.dat.
Non-Dimensional simulation using intialization values.
The reference area is 1 m^2.
The semi-span will be computed using the max y(3D) value.
The reference length is 1.00898 m.
Reference origin for moment evaluation is (-0.756, 0, 0).
Surface(s) where the force coefficients are evaluated: AIRFOIL.

Surface(s) plotted in the output file: AIRFOIL.
Input mesh file name: ../meshG2/meshG2.su2

--------------- Space Numerical Integration ( Zone 0 ) ------------------
Flux difference splitting (FDS) upwind scheme for the flow inviscid terms.
Second order integration in space, with slope limiter.
Venkatakrishnan slope-limiting method, with constant: 0.1042.
The reference element size is: 1. 
Average of gradients with correction (viscous flow terms).
Average of gradients with correction (viscous turbulence terms).
Gradient for upwind reconstruction: unweighted Least-Squares.
Gradient for viscous and source terms: Green-Gauss.

--------------- Time Numerical Integration  ( Zone 0 ) ------------------
Local time stepping (steady state simulation).
Euler implicit method for the flow equations.
FGMRES is used for solving the linear system.
Using a ILU(0) preconditioning.
Convergence criteria of the linear solver: 1e-06.
Max number of linear iterations: 10.
CFL adaptation. Factor down: 0.1, factor up: 1.2,
                lower limit: 1, upper limit: 1000,
                acceptable linear residual: 0.001.
Courant-Friedrichs-Lewy number:        2
Euler implicit time integration for the turbulence model.

------------------ Convergence Criteria  ( Zone 0 ) ---------------------
Maximum number of solver subiterations: 9999.
Begin convergence monitoring at iteration 10.
Residual minimum value: 1e-9.
Cauchy series min. value: 1e-06.
Number of Cauchy elements: 250.
Begin windowed time average at iteration 0.

-------------------- Output Information ( Zone 0 ) ----------------------
File writing frequency: 
+------------------------------------+
|                     File| Frequency|
+------------------------------------+
|                  RESTART|       200|
|                 PARAVIEW|       200|
|         SURFACE_PARAVIEW|       200|
+------------------------------------+
Writing the convergence history file every 1 inner iterations.
Writing the screen convergence history every 10 inner iterations.
The tabular file format is CSV (.csv).
Convergence history file name: history_G2.
Forces breakdown file name: forces_breakdown.dat.
Surface file name: surface_flow_G2.
Volume file name: flow_G2.
Restart file name: restart_flow_G2.dat.

------------- Config File Boundary Information ( Zone 0 ) ---------------
+-----------------------------------------------------------------------+
|                        Marker Type|                        Marker Name|
+-----------------------------------------------------------------------+
|                          Far-field|                           FARFIELD|
+-----------------------------------------------------------------------+
|                     Heat flux wall|                            AIRFOIL|
+-----------------------------------------------------------------------+

-------------------- Output Preprocessing ( Zone 0 ) --------------------

WARNING: SURFACE_PRESSURE_DROP can only be computed for at least 2 surfaces (outlet, inlet, ...)

Screen output fields: INNER_ITER, MIN_CFL, MAX_CFL, RMS_PRESSURE, CAUCHY_DRAG, DRAG
History output group(s): INNER_ITER, MIN_CFL, MAX_CFL, RMS_RES, LIFT, DRAG, MOMENT_Z, CAUCHY
Convergence field(s): RMS_PRESSURE, DRAG
Warning: No (valid) fields chosen for time convergence monitoring. Time convergence monitoring inactive.
Volume output fields: COORDINATES, SOLUTION, PRIMITIVE, RESIDUAL, MESH_QUALITY

------------------- Geometry Preprocessing ( Zone 0 ) -------------------
Two dimensional problem.
104517 grid points before partitioning.
103820 volume elements before partitioning.
2 surface markers.
388 boundary elements in index 0 (Marker = AIRFOIL).
1006 boundary elements in index 1 (Marker = FARFIELD).
Executing the partitioning functions.
Building the graph adjacency structure.
Calling ParMETIS... graph partitioning complete (3343 edge cuts).
Distributing ParMETIS coloring.
Rebalancing vertices.
Rebalancing volume element connectivity.
Rebalancing markers and surface elements.
111261 vertices including ghost points. 
107168 interior elements including halo cells. 
107168 quadrilaterals.
Establishing MPI communication patterns.
Setting point connectivity.
Renumbering points (Reverse Cuthill McKee Ordering).
Recomputing point connectivity.
Setting element connectivity.
Checking the numerical grid orientation.
All volume elements are correctly orientend.
There has been a re-orientation of 708 LINE surface elements.
Identifying edges and vertices.
Setting the control volume structure.
Area of the computational grid: 103177.
Searching for the closest normal neighbors to the surfaces.
Storing a mapping from global to local point index.
Compute the surface curvature.
Max K: 5243.18. Mean K: 4.99068. Standard deviation K: 140.61.
Checking for periodicity.
Computing mesh quality statistics for the dual control volumes.
+--------------------------------------------------------------+
|           Mesh Quality Metric|        Minimum|        Maximum|
+--------------------------------------------------------------+
|    Orthogonality Angle (deg.)|         73.338|             90|
|     CV Face Area Aspect Ratio|        1.00017|         558096|
|           CV Sub-Volume Ratio|              1|        4.41112|
+--------------------------------------------------------------+
Finding max control volume width.
Communicating number of neighbors.
Wetted area = 2.05959 m.
Area projection in the x-plane = 0.121102 m, y-plane = 1.00875 m.
Max. coordinate in the x-direction = 1.00898 m, y-direction = 0.0759828 m.
Min. coordinate in the x-direction = 2.62693e-07 m, y-direction = -0.0451348 m.
Computing wall distances.

-------------------- Solver Preprocessing ( Zone 0 ) --------------------
 Warning: There is no restart file (flow.meta).
 Computation will continue without updating metadata parameters.
Incompressible flow: rho_ref, vel_ref, and temp_ref
are based on the initial values, p_ref = rho_ref*vel_ref^2.
Force coefficients computed using initial values.
The reference area for force coeffs. is 1 m^2.
The reference length for force coeffs. is 1.00898 m.
The pressure is decomposed into thermodynamic and dynamic components.
The initial value of the dynamic pressure is 0.
Mach number: 0.0276747, computed using the Bulk modulus.
For external flows, the initial state is imposed at the far-field.
Angle of attack (deg): 14, computed using the initial velocity.
Side slip angle (deg): 0, computed using the initial velocity.
Reynolds number per meter: 594999, computed using initial values.
Reynolds number is a byproduct of inputs only (not used internally).
SI units only. The grid should be dimensional (meters).
No energy equation.

-- Models:
+------------------------------------------------------------------------------+
|          Viscosity Model|        Conductivity Model|              Fluid Model|
+------------------------------------------------------------------------------+
|       CONSTANT_VISCOSITY|          CONSTANT_PRANDTL|         CONSTANT_DENSITY|
+------------------------------------------------------------------------------+
-- Fluid properties:
+------------------------------------------------------------------------------+
|                  Name|    Dim. value|    Ref. value|      Unit|Non-dim. value|
+------------------------------------------------------------------------------+
|             Viscosity|      1.92e-05|        11.424|   N.s/m^2|   1.68067e-06|
+------------------------------------------------------------------------------+
|        Prandtl (Lam.)|             -|             -|         -|          0.72|
|       Prandtl (Turb.)|             -|             -|         -|           0.9|
+------------------------------------------------------------------------------+
|          Bulk Modulus|        142000|             1|        Pa|        142000|
+------------------------------------------------------------------------------+
-- Initial and free-stream conditions:
+------------------------------------------------------------------------------+
|                  Name|    Dim. value|    Ref. value|      Unit|Non-dim. value|
+------------------------------------------------------------------------------+
|      Dynamic Pressure|             0|       108.756|        Pa|             0|
|        Total Pressure|       54.3781|       108.756|        Pa|           0.5|
|               Density|           1.2|           1.2|    kg/m^3|             1|
|            Velocity-X|        9.2372|       9.51999|       m/s|      0.970296|
|            Velocity-Y|        2.3031|       9.51999|       m/s|      0.241923|
|    Velocity Magnitude|       9.51999|       9.51999|       m/s|             1|
+------------------------------------------------------------------------------+
|             Viscosity|      1.92e-05|        11.424|   N.s/m^2|   1.68067e-06|
|          Conductivity|             -|       3.59312|   W/m^2.K|             -|
|     Turb. Kin. Energy|       1.35945|       90.6301|   m^2/s^2|         0.015|
|     Spec. Dissipation|       8496.58|       9.51999|       1/s|       892.499|
+------------------------------------------------------------------------------+
|           Mach Number|             -|             -|         -|     0.0276747|
|       Reynolds Number|             -|             -|         -|        594999|
+------------------------------------------------------------------------------+
Initialize Jacobian structure (Navier-Stokes). MG level: 0.
Initialize Jacobian structure (SA model).

------------------- Numerics Preprocessing ( Zone 0 ) -------------------

----------------- Integration Preprocessing ( Zone 0 ) ------------------

------------------- Iteration Preprocessing ( Zone 0 ) ------------------
Euler/Navier-Stokes/RANS fluid iteration.

------------------------------ Begin Solver -----------------------------

Simulation Run using the Single-zone Driver
+-----------------------------------------------------------------------------+
|  Inner_Iter|     Min CFL|     Max CFL|      rms[P]|  Cauchy[CD]|          CD|
+-----------------------------------------------------------------------------+
|           0|  2.4000e+00|  2.4000e+00|   -5.701318|  1.0000e+00|    0.146384|
|          10|  1.4860e+01|  1.4860e+01|   -5.765329|  2.0286e-04|    0.139190|
|          20|  7.6675e+00|  7.6675e+00|   -5.995045|  2.6023e-03|    0.074317|
|          30|  4.7475e+01|  4.7475e+01|   -5.979872|  3.0862e-03|    0.065558|
|          40|  1.7011e+01|  1.7011e+01|   -6.056974|  3.5055e-03|    0.076041|
|          50|  7.3145e+00|  7.3145e+00|   -6.081282|  3.7104e-03|    0.073051|
|          60|  4.5290e+01|  4.5290e+01|   -6.208566|  3.7704e-03|    0.071840|
|          70|  9.3913e+00|  9.3913e+00|   -6.281690|  3.9504e-03|    0.075831|
|          80|  5.8148e+01|  5.8148e+01|   -6.388461|  4.0712e-03|    0.072811|
|          90|  3.0003e+01|  3.0003e+01|   -6.425793|  4.1713e-03|    0.070310|
|         100|  1.5481e+01|  1.5481e+01|   -6.438144|  4.2084e-03|    0.069391|
|         110|  7.9878e+00|  7.9878e+00|   -6.469636|  4.2771e-03|    0.071109|
|         120|  4.9459e+01|  4.9459e+01|   -6.433307|  4.3413e-03|    0.072714|
|         130|  7.1220e+00|  7.1220e+00|   -6.518362|  4.4301e-03|    0.071089|
|         140|  4.4098e+01|  4.4098e+01|   -6.553453|  4.4825e-03|    0.069781|
|         150|  2.2754e+01|  2.2754e+01|   -6.529737|  4.4972e-03|    0.069413|
|         160|  1.1740e+01|  1.1740e+01|   -6.529676|  4.5236e-03|    0.070074|
|         170|  6.0577e+00|  6.0577e+00|   -6.551281|  4.5408e-03|    0.070338|
|         180|  3.7508e+01|  3.7508e+01|   -6.580837|  4.5585e-03|    0.069895|
|         190|  1.9353e+01|  1.9353e+01|   -6.578626|  4.5999e-03|    0.068859|
|         200|  5.7789e+01|  5.7789e+01|   -6.605865|  4.6666e-03|    0.067192|
+-----------------------------------------------------------------------+
|        File Writing Summary       |              Filename             |
+-----------------------------------------------------------------------+
|SU2 binary restart                 |restart_flow_G2.dat                |
|Paraview                           |flow_G2.vtu                        |
|Paraview surface                   |surface_flow_G2.vtu                |
+-----------------------------------------------------------------------+
+-----------------------------------------------------------------------------+
|  Inner_Iter|     Min CFL|     Max CFL|      rms[P]|  Cauchy[CD]|          CD|
+-----------------------------------------------------------------------------+
|         210|  5.7789e+01|  5.7789e+01|   -6.709060|  4.7244e-03|    0.065746|
|         220|  5.7789e+00|  5.7789e+00|   -6.818500|  4.7711e-03|    0.064578|
|         230|  3.5781e+01|  3.5781e+01|   -6.890753|  4.7941e-03|    0.064005|
|         240|  1.8462e+01|  1.8462e+01|   -6.829107|  4.8345e-03|    0.062993|
|         250|  9.5261e+00|  9.5261e+00|   -6.822861|  4.8700e-03|    0.062108|
|         260|  5.8983e+01|  5.8983e+01|   -6.952884|  4.6917e-03|    0.061492|
|         270|  3.0434e+01|  3.0434e+01|   -7.011755|  2.3077e-03|    0.061107|
|         280|  1.5703e+01|  1.5703e+01|   -6.930083|  1.8431e-03|    0.060625|
|         290|  8.1026e+00|  8.1026e+00|   -6.871706|  1.4519e-03|    0.059920|
|         300|  5.0169e+01|  5.0169e+01|   -6.990040|  1.2703e-03|    0.059337|
|         310|  5.0169e+01|  5.0169e+01|   -6.917052|  1.2584e-03|    0.058137|
|         320|  2.1572e+01|  2.1572e+01|   -6.992294|  1.0944e-03|    0.057735|
|         330|  5.3677e+01|  5.3677e+01|   -6.968603|  9.9532e-04|    0.057193|
|         340|  1.6028e+01|  1.6028e+01|   -6.999872|  9.1280e-04|    0.056754|
|         350|  5.7431e+01|  5.7431e+01|   -6.855375|  8.9634e-04|    0.056238|
|         360|  6.8917e+01|  6.8917e+01|   -6.802854|  8.4752e-04|    0.055741|
|         370|  3.5560e+01|  3.5560e+01|   -6.925428|  7.8650e-04|    0.055661|
|         380|  1.8348e+01|  1.8348e+01|   -7.003279|  7.0139e-04|    0.055569|
|         390|  9.4672e+00|  9.4672e+00|   -6.804190|  6.5504e-04|    0.055419|
|         400|  5.8619e+01|  5.8619e+01|   -6.951799|  6.4573e-04|    0.055285|
+-----------------------------------------------------------------------+
|        File Writing Summary       |              Filename             |
+-----------------------------------------------------------------------+
|SU2 binary restart                 |restart_flow_G2.dat                |
|Paraview                           |flow_G2.vtu                        |
|Paraview surface                   |surface_flow_G2.vtu                |
+-----------------------------------------------------------------------+
+-----------------------------------------------------------------------------+
|  Inner_Iter|     Min CFL|     Max CFL|      rms[P]|  Cauchy[CD]|          CD|
+-----------------------------------------------------------------------------+
|         410|  8.4411e+00|  8.4411e+00|   -6.845761|  6.3006e-04|    0.055016|
|         420|  5.2265e+01|  5.2265e+01|   -6.935435|  6.1351e-04|    0.055002|
|         430|  2.6968e+01|  2.6968e+01|   -7.003232|  5.9660e-04|    0.055014|
|         440|  1.3915e+01|  1.3915e+01|   -7.045821|  5.5656e-04|    0.055048|
|         450|  5.9830e+01|  5.9830e+01|   -6.921627|  4.9137e-04|    0.055080|
|         460|  1.0339e+01|  1.0339e+01|   -6.931441|  4.3398e-04|    0.055090|
|         470|  6.4015e+01|  6.4015e+01|   -6.971798|  3.8906e-04|    0.055135|
|         480|  3.3030e+01|  3.3030e+01|   -7.025225|  3.6857e-04|    0.055196|
|         490|  1.7043e+01|  1.7043e+01|   -7.048451|  3.3134e-04|    0.055277|
|         500|  8.7937e+00|  8.7937e+00|   -6.981006|  3.0101e-04|    0.055404|
|         510|  5.4448e+01|  5.4448e+01|   -7.044164|  2.8087e-04|    0.055516|
|         520|  1.3548e+01|  1.3548e+01|   -7.059132|  2.7151e-04|    0.055668|
|         530|  6.9907e+00|  6.9907e+00|   -7.019165|  2.5755e-04|    0.055801|
|         540|  4.3285e+01|  4.3285e+01|   -7.040355|  2.3345e-04|    0.055903|
|         550|  2.2334e+01|  2.2334e+01|   -7.046141|  2.1521e-04|    0.056030|
|         560|  1.1524e+01|  1.1524e+01|   -7.005732|  1.7456e-04|    0.056214|
|         570|  5.9460e+01|  5.9460e+01|   -7.008504|  1.6620e-04|    0.056407|
|         580|  2.1306e+01|  2.1306e+01|   -7.027932|  1.5266e-04|    0.056610|
|         590|  6.3619e+01|  6.3619e+01|   -6.944553|  1.4654e-04|    0.056896|
|         600|  2.2796e+01|  2.2796e+01|   -6.993853|  1.3464e-04|    0.057115|
+-----------------------------------------------------------------------+
|        File Writing Summary       |              Filename             |
+-----------------------------------------------------------------------+
|SU2 binary restart                 |restart_flow_G2.dat                |
|Paraview                           |flow_G2.vtu                        |
|Paraview surface                   |surface_flow_G2.vtu                |
+-----------------------------------------------------------------------+
+-----------------------------------------------------------------------------+
|  Inner_Iter|     Min CFL|     Max CFL|      rms[P]|  Cauchy[CD]|          CD|
+-----------------------------------------------------------------------------+
|         610|  6.8068e+01|  6.8068e+01|   -6.894429|  1.2702e-04|    0.057422|
|         620|  1.6937e+01|  1.6937e+01|   -6.979690|  1.3531e-04|    0.057708|
|         630|  7.2828e+01|  7.2828e+01|   -6.867426|  1.4114e-04|    0.057947|
|         640|  7.2828e+01|  7.2828e+01|   -6.849257|  1.5025e-04|    0.058324|
|         650|  7.2828e+01|  7.2828e+01|   -6.870051|  1.5819e-04|    0.058657|
|         660|  7.2828e+01|  7.2828e+01|   -6.923593|  1.5829e-04|    0.058928|
|         670|  7.2828e+01|  7.2828e+01|   -6.991595|  1.6624e-04|    0.059143|
|         680|  7.2828e+01|  7.2828e+01|   -7.054529|  1.7168e-04|    0.059299|
|         690|  7.2828e+01|  7.2828e+01|   -7.099391|  1.7412e-04|    0.059395|
|         700|  7.2828e+01|  7.2828e+01|   -7.118753|  1.7414e-04|    0.059433|
|         710|  7.2828e+01|  7.2828e+01|   -7.117333|  1.7459e-04|    0.059411|
|         720|  7.2828e+01|  7.2828e+01|   -7.106068|  1.7586e-04|    0.059335|
|         730|  7.2828e+01|  7.2828e+01|   -7.094618|  1.7846e-04|    0.059209|
|         740|  7.2828e+01|  7.2828e+01|   -7.088706|  1.8205e-04|    0.059038|
|         750|  7.2828e+01|  7.2828e+01|   -7.089766|  1.8534e-04|    0.058828|
|         760|  7.2828e+01|  7.2828e+01|   -7.097390|  1.9045e-04|    0.058589|
|         770|  2.1746e+01|  2.1746e+01|   -7.154754|  1.9072e-04|    0.058430|
|         780|  1.1221e+01|  1.1221e+01|   -7.122605|  1.9102e-04|    0.058290|
|         790|  6.9475e+01|  6.9475e+01|   -7.165882|  1.9149e-04|    0.058176|
|         800|  3.5848e+01|  3.5848e+01|   -7.184540|  1.9085e-04|    0.058065|
+-----------------------------------------------------------------------+
|        File Writing Summary       |              Filename             |
+-----------------------------------------------------------------------+
|SU2 binary restart                 |restart_flow_G2.dat                |
|Paraview                           |flow_G2.vtu                        |
|Paraview surface                   |surface_flow_G2.vtu                |
+-----------------------------------------------------------------------+
+-----------------------------------------------------------------------------+
|  Inner_Iter|     Min CFL|     Max CFL|      rms[P]|  Cauchy[CD]|          CD|
+-----------------------------------------------------------------------------+
|         810|  7.4333e+01|  7.4333e+01|   -7.172564|  1.9333e-04|    0.057819|
|         820|  7.4333e+01|  7.4333e+01|   -7.204543|  1.9737e-04|    0.057525|
|         830|  7.4333e+01|  7.4333e+01|   -7.259217|  2.0053e-04|    0.057243|
|         840|  7.4333e+01|  7.4333e+01|   -7.325967|  2.0032e-04|    0.056962|
|         850|  7.4333e+01|  7.4333e+01|   -7.393977|  2.0244e-04|    0.056690|
|         860|  7.4333e+01|  7.4333e+01|   -7.443944|  2.0064e-04|    0.056429|
|         870|  7.4333e+01|  7.4333e+01|   -7.458736|  1.9933e-04|    0.056175|
|         880|  7.4333e+01|  7.4333e+01|   -7.441757|  1.9972e-04|    0.055926|
|         890|  7.4333e+01|  7.4333e+01|   -7.412363|  1.9442e-04|    0.055682|
|         900|  2.6635e+01|  2.6635e+01|   -7.485075|  1.8638e-04|    0.055550|
|         910|  1.3743e+01|  1.3743e+01|   -7.459345|  1.8039e-04|    0.055428|
|         920|  8.5094e+01|  8.5094e+01|   -7.441467|  1.7649e-04|    0.055311|
|         930|  4.3906e+01|  4.3906e+01|   -7.468170|  1.7375e-04|    0.055223|
|         940|  7.5870e+01|  7.5870e+01|   -7.405111|  1.7891e-04|    0.054999|
|         950|  7.5870e+01|  7.5870e+01|   -7.400468|  1.8751e-04|    0.054746|
|         960|  1.0925e+01|  1.0925e+01|   -7.415266|  1.9482e-04|    0.054541|
|         970|  6.7647e+01|  6.7647e+01|   -7.488577|  1.9574e-04|    0.054441|
|         980|  3.4904e+01|  3.4904e+01|   -7.528800|  1.9438e-04|    0.054350|
|         990|  7.2377e+00|  7.2377e+00|   -7.532730|  1.9579e-04|    0.054143|
|        1000|  4.4814e+01|  4.4814e+01|   -7.602619|  1.9021e-04|    0.054073|
+-----------------------------------------------------------------------+
|        File Writing Summary       |              Filename             |
+-----------------------------------------------------------------------+
|SU2 binary restart                 |restart_flow_G2.dat                |
|Paraview                           |flow_G2.vtu                        |
|Paraview surface                   |surface_flow_G2.vtu                |
+-----------------------------------------------------------------------+
+-----------------------------------------------------------------------------+
|  Inner_Iter|     Min CFL|     Max CFL|      rms[P]|  Cauchy[CD]|          CD|
+-----------------------------------------------------------------------------+
|        1010|  2.3123e+01|  2.3123e+01|   -7.621613|  1.8481e-04|    0.053968|
|        1020|  6.9045e+01|  6.9045e+01|   -7.638957|  1.8509e-04|    0.053803|
|        1030|  9.9425e+00|  9.9425e+00|   -7.683672|  1.8692e-04|    0.053617|
|        1040|  6.1561e+01|  6.1561e+01|   -7.736786|  1.8590e-04|    0.053529|
|        1050|  3.1764e+01|  3.1764e+01|   -7.785442|  1.8466e-04|    0.053449|
|        1060|  6.5867e+01|  6.5867e+01|   -7.748572|  1.8175e-04|    0.053275|
|        1070|  6.5867e+01|  6.5867e+01|   -7.735914|  1.7803e-04|    0.053074|
|        1080|  6.5867e+01|  6.5867e+01|   -7.723072|  1.7442e-04|    0.052882|
|        1090|  6.5867e+01|  6.5867e+01|   -7.714794|  1.7041e-04|    0.052702|
|        1100|  6.5867e+01|  6.5867e+01|   -7.717069|  1.6661e-04|    0.052525|
|        1110|  6.5867e+01|  6.5867e+01|   -7.726957|  1.6295e-04|    0.052355|
|        1120|  7.9040e+00|  7.9040e+00|   -7.744696|  1.5882e-04|    0.052204|
|        1130|  4.8939e+01|  4.8939e+01|   -7.802662|  1.5111e-04|    0.052149|
|        1140|  2.5252e+01|  2.5252e+01|   -7.825157|  1.4389e-04|    0.052085|
|        1150|  6.2834e+01|  6.2834e+01|   -7.808108|  1.4342e-04|    0.051964|
|        1160|  9.0481e+00|  9.0481e+00|   -7.816597|  1.4369e-04|    0.051836|
|        1170|  5.6024e+01|  5.6024e+01|   -7.865296|  1.4148e-04|    0.051774|
|        1180|  2.8907e+01|  2.8907e+01|   -7.903306|  1.4016e-04|    0.051719|
|        1190|  5.9941e+01|  5.9941e+01|   -7.872419|  1.3596e-04|    0.051600|
|        1200|  5.9941e+01|  5.9941e+01|   -7.872232|  1.3169e-04|    0.051454|
+-----------------------------------------------------------------------+
|        File Writing Summary       |              Filename             |
+-----------------------------------------------------------------------+
|SU2 binary restart                 |restart_flow_G2.dat                |
|Paraview                           |flow_G2.vtu                        |
|Paraview surface                   |surface_flow_G2.vtu                |
+-----------------------------------------------------------------------+
+-----------------------------------------------------------------------------+
|  Inner_Iter|     Min CFL|     Max CFL|      rms[P]|  Cauchy[CD]|          CD|
+-----------------------------------------------------------------------------+
|        1210|  8.6316e+00|  8.6316e+00|   -7.875321|  1.2833e-04|    0.051333|
|        1220|  5.3444e+01|  5.3444e+01|   -7.926681|  1.2667e-04|    0.051275|
|        1230|  2.7576e+01|  2.7576e+01|   -7.950127|  1.2506e-04|    0.051223|
|        1240|  5.7182e+01|  5.7182e+01|   -7.904083|  1.2132e-04|    0.051110|
|        1250|  5.7182e+01|  5.7182e+01|   -7.900223|  1.2420e-04|    0.050968|
|        1260|  5.7182e+01|  5.7182e+01|   -7.898602|  1.2558e-04|    0.050829|
|        1270|  1.4229e+01|  1.4229e+01|   -7.943630|  1.2210e-04|    0.050751|
|        1280|  7.3417e+00|  7.3417e+00|   -7.914903|  1.1755e-04|    0.050678|
|        1290|  4.5458e+01|  4.5458e+01|   -7.954739|  1.1586e-04|    0.050632|
|        1300|  5.4549e+01|  5.4549e+01|   -7.942559|  1.1770e-04|    0.050506|
|        1310|  5.4549e+01|  5.4549e+01|   -7.951789|  1.1607e-04|    0.050373|
|        1320|  5.4549e+01|  5.4549e+01|   -7.968126|  1.1317e-04|    0.050244|
|        1330|  1.3574e+01|  1.3574e+01|   -8.035880|  1.0844e-04|    0.050171|
|        1340|  7.0037e+00|  7.0037e+00|   -7.992798|  1.0398e-04|    0.050103|
|        1350|  4.3365e+01|  4.3365e+01|   -8.038531|  9.8610e-05|    0.050060|
|        1360|  5.2038e+01|  5.2038e+01|   -8.022505|  9.6470e-05|    0.049943|
|        1370|  5.2038e+01|  5.2038e+01|   -8.024274|  9.5424e-05|    0.049818|
|        1380|  5.2038e+01|  5.2038e+01|   -8.025613|  9.8072e-05|    0.049697|
|        1390|  5.2038e+01|  5.2038e+01|   -8.025382|  1.0028e-04|    0.049578|
|        1400|  5.2038e+01|  5.2038e+01|   -8.021753|  1.0023e-04|    0.049459|
+-----------------------------------------------------------------------+
|        File Writing Summary       |              Filename             |
+-----------------------------------------------------------------------+
|SU2 binary restart                 |restart_flow_G2.dat                |
|Paraview                           |flow_G2.vtu                        |
|Paraview surface                   |surface_flow_G2.vtu                |
+-----------------------------------------------------------------------+
+-----------------------------------------------------------------------------+
|  Inner_Iter|     Min CFL|     Max CFL|      rms[P]|  Cauchy[CD]|          CD|
+-----------------------------------------------------------------------------+
|        1410|  5.2038e+01|  5.2038e+01|   -8.020533|  9.9926e-05|    0.049338|
|        1420|  5.2038e+01|  5.2038e+01|   -8.020254|  1.0225e-04|    0.049218|
|        1430|  1.8646e+01|  1.8646e+01|   -8.066282|  1.0215e-04|    0.049165|
|        1440|  9.6210e+00|  9.6210e+00|   -8.027925|  9.9800e-05|    0.049105|
|        1450|  4.9642e+01|  4.9642e+01|   -8.052490|  9.6239e-05|    0.049048|
|        1460|  4.9642e+01|  4.9642e+01|   -8.044682|  9.5834e-05|    0.048937|
|        1470|  4.9642e+01|  4.9642e+01|   -8.045468|  9.8114e-05|    0.048822|
|        1480|  4.9642e+01|  4.9642e+01|   -8.053535|  1.0058e-04|    0.048709|
|        1490|  4.9642e+01|  4.9642e+01|   -8.064755|  1.0050e-04|    0.048598|
|        1500|  4.9642e+01|  4.9642e+01|   -8.077347|  9.9234e-05|    0.048487|
|        1510|  5.9571e+00|  5.9571e+00|   -8.091206|  9.7743e-05|    0.048385|
|        1520|  3.6885e+01|  3.6885e+01|   -8.139191|  9.6103e-05|    0.048348|
|        1530|  1.9032e+01|  1.9032e+01|   -8.154245|  9.4967e-05|    0.048304|
|        1540|  4.7357e+01|  4.7357e+01|   -8.125982|  9.6385e-05|    0.048222|
|        1550|  4.7357e+01|  4.7357e+01|   -8.134060|  9.5518e-05|    0.048119|
|        1560|  4.7357e+01|  4.7357e+01|   -8.139848|  9.4370e-05|    0.048014|
|        1570|  4.7357e+01|  4.7357e+01|   -8.144592|  9.3309e-05|    0.047912|
|        1580|  4.7357e+01|  4.7357e+01|   -8.149240|  9.4387e-05|    0.047811|
|        1590|  4.7357e+01|  4.7357e+01|   -8.153746|  9.5678e-05|    0.047711|
|        1600|  4.7357e+01|  4.7357e+01|   -8.157097|  9.8020e-05|    0.047609|
+-----------------------------------------------------------------------+
|        File Writing Summary       |              Filename             |
+-----------------------------------------------------------------------+
|SU2 binary restart                 |restart_flow_G2.dat                |
|Paraview                           |flow_G2.vtu                        |
|Paraview surface                   |surface_flow_G2.vtu                |
+-----------------------------------------------------------------------+
+-----------------------------------------------------------------------------+
|  Inner_Iter|     Min CFL|     Max CFL|      rms[P]|  Cauchy[CD]|          CD|
+-----------------------------------------------------------------------------+
|        1610|  4.7357e+01|  4.7357e+01|   -8.158709|  9.7347e-05|    0.047509|
|        1620|  4.7357e+01|  4.7357e+01|   -8.160870|  9.6344e-05|    0.047410|
|        1630|  4.7357e+01|  4.7357e+01|   -8.163666|  9.5447e-05|    0.047311|
|        1640|  4.7357e+01|  4.7357e+01|   -8.166252|  9.4622e-05|    0.047212|
|        1650|  1.1784e+01|  1.1784e+01|   -8.218189|  9.2121e-05|    0.047156|
|        1660|  6.0802e+00|  6.0802e+00|   -8.174990|  8.9413e-05|    0.047102|
|        1670|  3.7647e+01|  3.7647e+01|   -8.210826|  8.5921e-05|    0.047070|
|        1680|  4.5177e+01|  4.5177e+01|   -8.185902|  8.7371e-05|    0.046981|
|        1690|  4.5177e+01|  4.5177e+01|   -8.185746|  8.8666e-05|    0.046888|
|        1700|  4.5177e+01|  4.5177e+01|   -8.185547|  9.0074e-05|    0.046796|
|        1710|  4.5177e+01|  4.5177e+01|   -8.186730|  8.9272e-05|    0.046705|
|        1720|  4.5177e+01|  4.5177e+01|   -8.188918|  8.8235e-05|    0.046616|
|        1730|  4.5177e+01|  4.5177e+01|   -8.191855|  8.7287e-05|    0.046526|
|        1740|  4.5177e+01|  4.5177e+01|   -8.195125|  8.6430e-05|    0.046437|
|        1750|  4.5177e+01|  4.5177e+01|   -8.198281|  8.5540e-05|    0.046349|
|        1760|  4.5177e+01|  4.5177e+01|   -8.202445|  8.4968e-05|    0.046261|
|        1770|  4.5177e+01|  4.5177e+01|   -8.207047|  8.6956e-05|    0.046174|
|        1780|  4.5177e+01|  4.5177e+01|   -8.211466|  8.8641e-05|    0.046088|
|        1790|  4.5177e+01|  4.5177e+01|   -8.215890|  8.8821e-05|    0.046002|
|        1800|  4.5177e+01|  4.5177e+01|   -8.221015|  8.8074e-05|    0.045917|
+-----------------------------------------------------------------------+
|        File Writing Summary       |              Filename             |
+-----------------------------------------------------------------------+
|SU2 binary restart                 |restart_flow_G2.dat                |
|Paraview                           |flow_G2.vtu                        |
|Paraview surface                   |surface_flow_G2.vtu                |
+-----------------------------------------------------------------------+
+-----------------------------------------------------------------------------+
|  Inner_Iter|     Min CFL|     Max CFL|      rms[P]|  Cauchy[CD]|          CD|
+-----------------------------------------------------------------------------+
|        1810|  4.5177e+01|  4.5177e+01|   -8.226774|  8.7290e-05|    0.045832|
|        1820|  4.5177e+01|  4.5177e+01|   -8.232085|  8.6552e-05|    0.045748|
|        1830|  4.5177e+01|  4.5177e+01|   -8.236915|  8.5871e-05|    0.045665|
|        1840|  4.5177e+01|  4.5177e+01|   -8.241734|  8.5161e-05|    0.045582|
|        1850|  4.5177e+01|  4.5177e+01|   -8.246771|  8.4397e-05|    0.045499|
|        1860|  4.5177e+01|  4.5177e+01|   -8.251152|  8.3657e-05|    0.045418|
|        1870|  4.5177e+01|  4.5177e+01|   -8.255251|  8.2917e-05|    0.045337|
|        1880|  4.5177e+01|  4.5177e+01|   -8.258957|  8.2165e-05|    0.045257|
|        1890|  4.5177e+01|  4.5177e+01|   -8.262320|  8.1418e-05|    0.045177|
|        1900|  4.5177e+01|  4.5177e+01|   -8.265112|  8.2325e-05|    0.045098|
|        1910|  4.5177e+01|  4.5177e+01|   -8.267536|  8.3346e-05|    0.045019|
|        1920|  4.5177e+01|  4.5177e+01|   -8.269700|  8.5164e-05|    0.044941|
|        1930|  4.5177e+01|  4.5177e+01|   -8.271614|  8.4730e-05|    0.044863|
|        1940|  4.5177e+01|  4.5177e+01|   -8.273372|  8.4086e-05|    0.044786|
|        1950|  4.5177e+01|  4.5177e+01|   -8.275256|  8.3456e-05|    0.044709|
|        1960|  4.5177e+01|  4.5177e+01|   -8.277152|  8.2858e-05|    0.044633|
|        1970|  4.5177e+01|  4.5177e+01|   -8.279008|  8.2297e-05|    0.044558|
|        1980|  4.5177e+01|  4.5177e+01|   -8.280954|  8.1703e-05|    0.044484|
|        1990|  4.5177e+01|  4.5177e+01|   -8.283084|  8.1082e-05|    0.044410|
|        2000|  4.5177e+01|  4.5177e+01|   -8.285390|  8.0489e-05|    0.044336|
+-----------------------------------------------------------------------+
|        File Writing Summary       |              Filename             |
+-----------------------------------------------------------------------+
|SU2 binary restart                 |restart_flow_G2.dat                |
|Paraview                           |flow_G2.vtu                        |
|Paraview surface                   |surface_flow_G2.vtu                |
+-----------------------------------------------------------------------+
+-----------------------------------------------------------------------------+
|  Inner_Iter|     Min CFL|     Max CFL|      rms[P]|  Cauchy[CD]|          CD|
+-----------------------------------------------------------------------------+
|        2010|  4.5177e+01|  4.5177e+01|   -8.287814|  7.9902e-05|    0.044264|
|        2020|  2.3310e+01|  2.3310e+01|   -8.326207|  7.7358e-05|    0.044240|
|        2030|  1.2028e+01|  1.2028e+01|   -8.330187|  7.5256e-05|    0.044206|
|        2040|  4.3097e+01|  4.3097e+01|   -8.302109|  7.3613e-05|    0.044162|
|        2050|  4.3097e+01|  4.3097e+01|   -8.302880|  7.2894e-05|    0.044094|
|        2060|  4.3097e+01|  4.3097e+01|   -8.303656|  7.2254e-05|    0.044026|
|        2070|  4.3097e+01|  4.3097e+01|   -8.305212|  7.1612e-05|    0.043958|
|        2080|  4.3097e+01|  4.3097e+01|   -8.307216|  7.0947e-05|    0.043891|
|        2090|  4.3097e+01|  4.3097e+01|   -8.309923|  7.0260e-05|    0.043825|
|        2100|  4.3097e+01|  4.3097e+01|   -8.313090|  6.9618e-05|    0.043759|
|        2110|  4.3097e+01|  4.3097e+01|   -8.316174|  6.8998e-05|    0.043693|
|        2120|  4.3097e+01|  4.3097e+01|   -8.318890|  6.8367e-05|    0.043628|
|        2130|  4.3097e+01|  4.3097e+01|   -8.322105|  6.7734e-05|    0.043563|
|        2140|  4.3097e+01|  4.3097e+01|   -8.325570|  6.7107e-05|    0.043499|
|        2150|  4.3097e+01|  4.3097e+01|   -8.328635|  6.6485e-05|    0.043435|
|        2160|  4.3097e+01|  4.3097e+01|   -8.331206|  6.5863e-05|    0.043372|
|        2170|  4.3097e+01|  4.3097e+01|   -8.334090|  6.5245e-05|    0.043309|
|        2180|  4.3097e+01|  4.3097e+01|   -8.337498|  6.4633e-05|    0.043247|
|        2190|  4.3097e+01|  4.3097e+01|   -8.340492|  6.4023e-05|    0.043185|
|        2200|  4.3097e+01|  4.3097e+01|   -8.342854|  6.3417e-05|    0.043124|
+-----------------------------------------------------------------------+
|        File Writing Summary       |              Filename             |
+-----------------------------------------------------------------------+
|SU2 binary restart                 |restart_flow_G2.dat                |
|Paraview                           |flow_G2.vtu                        |
|Paraview surface                   |surface_flow_G2.vtu                |
+-----------------------------------------------------------------------+
+-----------------------------------------------------------------------------+
|  Inner_Iter|     Min CFL|     Max CFL|      rms[P]|  Cauchy[CD]|          CD|
+-----------------------------------------------------------------------------+
|        2210|  4.3097e+01|  4.3097e+01|   -8.345346|  6.2824e-05|    0.043063|
|        2220|  4.3097e+01|  4.3097e+01|   -8.348086|  6.2244e-05|    0.043002|
|        2230|  4.3097e+01|  4.3097e+01|   -8.350572|  6.1668e-05|    0.042942|
|        2240|  4.3097e+01|  4.3097e+01|   -8.352866|  6.1095e-05|    0.042883|
|        2250|  4.3097e+01|  4.3097e+01|   -8.355329|  6.0528e-05|    0.042823|
|        2260|  4.3097e+01|  4.3097e+01|   -8.357911|  5.9971e-05|    0.042764|
|        2270|  4.3097e+01|  4.3097e+01|   -8.360333|  6.1373e-05|    0.042706|
|        2280|  4.3097e+01|  4.3097e+01|   -8.362746|  6.2337e-05|    0.042648|
|        2290|  4.3097e+01|  4.3097e+01|   -8.365121|  6.2855e-05|    0.042590|
|        2300|  4.3097e+01|  4.3097e+01|   -8.367618|  6.2452e-05|    0.042533|
|        2310|  4.3097e+01|  4.3097e+01|   -8.370099|  6.1972e-05|    0.042476|
|        2320|  4.3097e+01|  4.3097e+01|   -8.372627|  6.1503e-05|    0.042420|
|        2330|  4.3097e+01|  4.3097e+01|   -8.375275|  6.1064e-05|    0.042364|
|        2340|  4.3097e+01|  4.3097e+01|   -8.378108|  6.0648e-05|    0.042309|
|        2350|  4.3097e+01|  4.3097e+01|   -8.380878|  6.0196e-05|    0.042254|
|        2360|  4.3097e+01|  4.3097e+01|   -8.383683|  5.9731e-05|    0.042200|
|        2370|  4.3097e+01|  4.3097e+01|   -8.386559|  5.9289e-05|    0.042146|
|        2380|  4.3097e+01|  4.3097e+01|   -8.389439|  5.8853e-05|    0.042092|
|        2390|  4.3097e+01|  4.3097e+01|   -8.392266|  5.8416e-05|    0.042039|
|        2400|  4.3097e+01|  4.3097e+01|   -8.395104|  5.7980e-05|    0.041986|
+-----------------------------------------------------------------------+
|        File Writing Summary       |              Filename             |
+-----------------------------------------------------------------------+
|SU2 binary restart                 |restart_flow_G2.dat                |
|Paraview                           |flow_G2.vtu                        |
|Paraview surface                   |surface_flow_G2.vtu                |
+-----------------------------------------------------------------------+
+-----------------------------------------------------------------------------+
|  Inner_Iter|     Min CFL|     Max CFL|      rms[P]|  Cauchy[CD]|          CD|
+-----------------------------------------------------------------------------+
|        2410|  4.3097e+01|  4.3097e+01|   -8.397994|  5.7552e-05|    0.041933|
|        2420|  4.3097e+01|  4.3097e+01|   -8.400882|  5.7127e-05|    0.041881|
|        2430|  4.3097e+01|  4.3097e+01|   -8.403775|  5.6701e-05|    0.041830|
|        2440|  4.3097e+01|  4.3097e+01|   -8.406588|  5.6280e-05|    0.041778|
|        2450|  4.3097e+01|  4.3097e+01|   -8.409414|  5.5865e-05|    0.041727|
|        2460|  4.3097e+01|  4.3097e+01|   -8.412124|  5.5451e-05|    0.041677|
|        2470|  4.3097e+01|  4.3097e+01|   -8.414854|  5.5039e-05|    0.041626|
|        2480|  4.3097e+01|  4.3097e+01|   -8.417651|  5.4630e-05|    0.041576|
|        2490|  4.3097e+01|  4.3097e+01|   -8.420428|  5.4225e-05|    0.041527|
|        2500|  4.3097e+01|  4.3097e+01|   -8.423234|  5.3818e-05|    0.041478|
|        2510|  4.3097e+01|  4.3097e+01|   -8.425969|  5.3408e-05|    0.041429|
|        2520|  4.3097e+01|  4.3097e+01|   -8.428658|  5.2996e-05|    0.041381|
|        2530|  4.3097e+01|  4.3097e+01|   -8.431421|  5.2586e-05|    0.041333|
|        2540|  4.3097e+01|  4.3097e+01|   -8.434192|  5.2176e-05|    0.041286|
|        2550|  4.3097e+01|  4.3097e+01|   -8.436888|  5.1770e-05|    0.041239|
|        2560|  4.3097e+01|  4.3097e+01|   -8.439487|  5.1367e-05|    0.041192|
|        2570|  4.3097e+01|  4.3097e+01|   -8.442157|  5.0968e-05|    0.041146|
|        2580|  4.3097e+01|  4.3097e+01|   -8.444838|  5.0575e-05|    0.041100|
|        2590|  4.3097e+01|  4.3097e+01|   -8.447456|  5.0190e-05|    0.041054|
|        2600|  4.3097e+01|  4.3097e+01|   -8.450150|  4.9809e-05|    0.041009|
+-----------------------------------------------------------------------+
|        File Writing Summary       |              Filename             |
+-----------------------------------------------------------------------+
|SU2 binary restart                 |restart_flow_G2.dat                |
|Paraview                           |flow_G2.vtu                        |
|Paraview surface                   |surface_flow_G2.vtu                |
+-----------------------------------------------------------------------+
+-----------------------------------------------------------------------------+
|  Inner_Iter|     Min CFL|     Max CFL|      rms[P]|  Cauchy[CD]|          CD|
+-----------------------------------------------------------------------------+
|        2610|  4.3097e+01|  4.3097e+01|   -8.452916|  4.9430e-05|    0.040964|
|        2620|  4.3097e+01|  4.3097e+01|   -8.455687|  4.9053e-05|    0.040919|
|        2630|  4.3097e+01|  4.3097e+01|   -8.458475|  4.8680e-05|    0.040875|
|        2640|  4.3097e+01|  4.3097e+01|   -8.461261|  4.8311e-05|    0.040831|
|        2650|  4.3097e+01|  4.3097e+01|   -8.464005|  4.7944e-05|    0.040787|
|        2660|  4.3097e+01|  4.3097e+01|   -8.466784|  4.7577e-05|    0.040744|
|        2670|  4.3097e+01|  4.3097e+01|   -8.469589|  4.7209e-05|    0.040701|
|        2680|  4.3097e+01|  4.3097e+01|   -8.472413|  4.6844e-05|    0.040658|
|        2690|  4.3097e+01|  4.3097e+01|   -8.475327|  4.6481e-05|    0.040616|
|        2700|  4.3097e+01|  4.3097e+01|   -8.478270|  4.6119e-05|    0.040574|
|        2710|  4.3097e+01|  4.3097e+01|   -8.481233|  4.5757e-05|    0.040533|
|        2720|  4.3097e+01|  4.3097e+01|   -8.484185|  4.5396e-05|    0.040491|
|        2730|  4.3097e+01|  4.3097e+01|   -8.487067|  4.5033e-05|    0.040451|
|        2740|  4.3097e+01|  4.3097e+01|   -8.489844|  4.4672e-05|    0.040410|
|        2750|  4.3097e+01|  4.3097e+01|   -8.492703|  4.4316e-05|    0.040370|
|        2760|  4.3097e+01|  4.3097e+01|   -8.495578|  4.3968e-05|    0.040330|
|        2770|  4.3097e+01|  4.3097e+01|   -8.498475|  4.3624e-05|    0.040290|
|        2780|  4.3097e+01|  4.3097e+01|   -8.501322|  4.3285e-05|    0.040251|
|        2790|  4.3097e+01|  4.3097e+01|   -8.504149|  4.2948e-05|    0.040212|
|        2800|  4.3097e+01|  4.3097e+01|   -8.506932|  4.2615e-05|    0.040173|
+-----------------------------------------------------------------------+
|        File Writing Summary       |              Filename             |
+-----------------------------------------------------------------------+
|SU2 binary restart                 |restart_flow_G2.dat                |
|Paraview                           |flow_G2.vtu                        |
|Paraview surface                   |surface_flow_G2.vtu                |
+-----------------------------------------------------------------------+
+-----------------------------------------------------------------------------+
|  Inner_Iter|     Min CFL|     Max CFL|      rms[P]|  Cauchy[CD]|          CD|
+-----------------------------------------------------------------------------+
|        2810|  4.3097e+01|  4.3097e+01|   -8.509754|  4.2285e-05|    0.040135|
|        2820|  4.3097e+01|  4.3097e+01|   -8.512623|  4.1958e-05|    0.040097|
|        2830|  4.3097e+01|  4.3097e+01|   -8.515496|  4.1633e-05|    0.040059|
|        2840|  4.3097e+01|  4.3097e+01|   -8.518400|  4.1307e-05|    0.040022|
|        2850|  4.3097e+01|  4.3097e+01|   -8.521313|  4.0981e-05|    0.039984|
|        2860|  4.3097e+01|  4.3097e+01|   -8.524205|  4.0659e-05|    0.039947|
|        2870|  4.3097e+01|  4.3097e+01|   -8.527080|  4.0338e-05|    0.039911|
|        2880|  4.3097e+01|  4.3097e+01|   -8.529981|  4.0020e-05|    0.039874|
|        2890|  4.3097e+01|  4.3097e+01|   -8.532917|  3.9703e-05|    0.039838|
|        2900|  4.3097e+01|  4.3097e+01|   -8.535875|  3.9389e-05|    0.039803|
|        2910|  4.3097e+01|  4.3097e+01|   -8.538853|  3.9077e-05|    0.039767|
|        2920|  4.3097e+01|  4.3097e+01|   -8.541822|  3.8769e-05|    0.039732|
|        2930|  4.3097e+01|  4.3097e+01|   -8.544747|  3.8466e-05|    0.039697|
|        2940|  4.3097e+01|  4.3097e+01|   -8.547724|  3.8164e-05|    0.039662|
|        2950|  4.3097e+01|  4.3097e+01|   -8.550747|  3.7862e-05|    0.039628|
|        2960|  4.3097e+01|  4.3097e+01|   -8.553700|  3.7560e-05|    0.039594|
|        2970|  4.3097e+01|  4.3097e+01|   -8.556631|  3.7262e-05|    0.039560|
|        2980|  4.3097e+01|  4.3097e+01|   -8.559632|  3.6966e-05|    0.039526|
|        2990|  4.3097e+01|  4.3097e+01|   -8.562626|  3.6672e-05|    0.039493|
|        3000|  4.3097e+01|  4.3097e+01|   -8.565643|  3.6379e-05|    0.039460|
+-----------------------------------------------------------------------+
|        File Writing Summary       |              Filename             |
+-----------------------------------------------------------------------+
|SU2 binary restart                 |restart_flow_G2.dat                |
|Paraview                           |flow_G2.vtu                        |
|Paraview surface                   |surface_flow_G2.vtu                |
+-----------------------------------------------------------------------+
+-----------------------------------------------------------------------------+
|  Inner_Iter|     Min CFL|     Max CFL|      rms[P]|  Cauchy[CD]|          CD|
+-----------------------------------------------------------------------------+
|        3010|  4.3097e+01|  4.3097e+01|   -8.568596|  3.6087e-05|    0.039428|
|        3020|  4.3097e+01|  4.3097e+01|   -8.571532|  3.5798e-05|    0.039395|
|        3030|  4.3097e+01|  4.3097e+01|   -8.574429|  3.5511e-05|    0.039363|
|        3040|  4.3097e+01|  4.3097e+01|   -8.577335|  3.5226e-05|    0.039331|
|        3050|  4.3097e+01|  4.3097e+01|   -8.580250|  3.4943e-05|    0.039300|
|        3060|  4.3097e+01|  4.3097e+01|   -8.583249|  3.4660e-05|    0.039269|
|        3070|  4.3097e+01|  4.3097e+01|   -8.586272|  3.4377e-05|    0.039237|
|        3080|  4.3097e+01|  4.3097e+01|   -8.589331|  3.4097e-05|    0.039207|
|        3090|  4.3097e+01|  4.3097e+01|   -8.592407|  3.3819e-05|    0.039176|
|        3100|  4.3097e+01|  4.3097e+01|   -8.595427|  3.3545e-05|    0.039146|
|        3110|  4.3097e+01|  4.3097e+01|   -8.598412|  3.3273e-05|    0.039116|
|        3120|  4.3097e+01|  4.3097e+01|   -8.601472|  3.3003e-05|    0.039086|
|        3130|  4.3097e+01|  4.3097e+01|   -8.604521|  3.2734e-05|    0.039056|
|        3140|  4.3097e+01|  4.3097e+01|   -8.607598|  3.2469e-05|    0.039027|
|        3150|  4.3097e+01|  4.3097e+01|   -8.610721|  3.2207e-05|    0.038997|
|        3160|  4.3097e+01|  4.3097e+01|   -8.613844|  3.1947e-05|    0.038968|
|        3170|  4.3097e+01|  4.3097e+01|   -8.616928|  3.1689e-05|    0.038940|
|        3180|  4.3097e+01|  4.3097e+01|   -8.619948|  3.1433e-05|    0.038911|
|        3190|  4.3097e+01|  4.3097e+01|   -8.623011|  3.1177e-05|    0.038883|
|        3200|  4.3097e+01|  4.3097e+01|   -8.626020|  3.0924e-05|    0.038855|
+-----------------------------------------------------------------------+
|        File Writing Summary       |              Filename             |
+-----------------------------------------------------------------------+
|SU2 binary restart                 |restart_flow_G2.dat                |
|Paraview                           |flow_G2.vtu                        |
|Paraview surface                   |surface_flow_G2.vtu                |
+-----------------------------------------------------------------------+
+-----------------------------------------------------------------------------+
|  Inner_Iter|     Min CFL|     Max CFL|      rms[P]|  Cauchy[CD]|          CD|
+-----------------------------------------------------------------------------+
|        3210|  4.3097e+01|  4.3097e+01|   -8.629065|  3.0674e-05|    0.038827|
|        3220|  4.3097e+01|  4.3097e+01|   -8.632142|  3.0425e-05|    0.038799|
|        3230|  4.3097e+01|  4.3097e+01|   -8.635214|  3.0178e-05|    0.038772|
|        3240|  4.3097e+01|  4.3097e+01|   -8.638276|  2.9932e-05|    0.038745|
|        3250|  4.3097e+01|  4.3097e+01|   -8.641291|  2.9689e-05|    0.038718|
|        3260|  4.3097e+01|  4.3097e+01|   -8.644380|  2.9448e-05|    0.038692|
|        3270|  4.3097e+01|  4.3097e+01|   -8.647491|  2.9208e-05|    0.038665|
|        3280|  4.3097e+01|  4.3097e+01|   -8.650508|  2.8971e-05|    0.038639|
|        3290|  4.3097e+01|  4.3097e+01|   -8.653533|  2.8734e-05|    0.038613|
|        3300|  4.3097e+01|  4.3097e+01|   -8.656539|  2.8499e-05|    0.038587|
|        3310|  4.3097e+01|  4.3097e+01|   -8.659562|  2.8267e-05|    0.038562|
|        3320|  4.3097e+01|  4.3097e+01|   -8.662634|  2.8037e-05|    0.038537|
|        3330|  4.3097e+01|  4.3097e+01|   -8.665749|  2.7808e-05|    0.038511|
|        3340|  4.3097e+01|  4.3097e+01|   -8.668944|  2.7579e-05|    0.038487|
|        3350|  4.3097e+01|  4.3097e+01|   -8.672147|  2.7351e-05|    0.038462|
|        3360|  4.3097e+01|  4.3097e+01|   -8.675328|  2.7124e-05|    0.038438|
|        3370|  4.3097e+01|  4.3097e+01|   -8.678520|  2.6899e-05|    0.038413|
|        3380|  4.3097e+01|  4.3097e+01|   -8.681705|  2.6676e-05|    0.038389|
|        3390|  4.3097e+01|  4.3097e+01|   -8.684902|  2.6454e-05|    0.038365|
|        3400|  4.3097e+01|  4.3097e+01|   -8.688146|  2.6232e-05|    0.038342|
+-----------------------------------------------------------------------+
|        File Writing Summary       |              Filename             |
+-----------------------------------------------------------------------+
|SU2 binary restart                 |restart_flow_G2.dat                |
|Paraview                           |flow_G2.vtu                        |
|Paraview surface                   |surface_flow_G2.vtu                |
+-----------------------------------------------------------------------+
+-----------------------------------------------------------------------------+
|  Inner_Iter|     Min CFL|     Max CFL|      rms[P]|  Cauchy[CD]|          CD|
+-----------------------------------------------------------------------------+
|        3410|  4.3097e+01|  4.3097e+01|   -8.691420|  2.6011e-05|    0.038318|
|        3420|  4.3097e+01|  4.3097e+01|   -8.694701|  2.5792e-05|    0.038295|
|        3430|  4.3097e+01|  4.3097e+01|   -8.697993|  2.5573e-05|    0.038272|
|        3440|  4.3097e+01|  4.3097e+01|   -8.701277|  2.5357e-05|    0.038249|
|        3450|  4.3097e+01|  4.3097e+01|   -8.704538|  2.5143e-05|    0.038226|
|        3460|  4.3097e+01|  4.3097e+01|   -8.707770|  2.4933e-05|    0.038203|
|        3470|  4.3097e+01|  4.3097e+01|   -8.711010|  2.4727e-05|    0.038181|
|        3480|  4.3097e+01|  4.3097e+01|   -8.714248|  2.4525e-05|    0.038159|
|        3490|  4.3097e+01|  4.3097e+01|   -8.717442|  2.4328e-05|    0.038137|
|        3500|  4.3097e+01|  4.3097e+01|   -8.720583|  2.4133e-05|    0.038115|
|        3510|  4.3097e+01|  4.3097e+01|   -8.723706|  2.3939e-05|    0.038093|
|        3520|  4.3097e+01|  4.3097e+01|   -8.726860|  2.3745e-05|    0.038072|
|        3530|  4.3097e+01|  4.3097e+01|   -8.730066|  2.3552e-05|    0.038050|
|        3540|  4.3097e+01|  4.3097e+01|   -8.733227|  2.3360e-05|    0.038029|
|        3550|  4.3097e+01|  4.3097e+01|   -8.736353|  2.3168e-05|    0.038008|
|        3560|  4.3097e+01|  4.3097e+01|   -8.739449|  2.2978e-05|    0.037987|
|        3570|  4.3097e+01|  4.3097e+01|   -8.742635|  2.2789e-05|    0.037967|
|        3580|  5.1716e+01|  5.1716e+01|   -8.745856|  2.2601e-05|    0.037946|
|        3590|  2.6684e+01|  2.6684e+01|   -8.773040|  2.1919e-05|    0.037939|
|        3600|  1.3769e+01|  1.3769e+01|   -8.775244|  2.1294e-05|    0.037930|
+-----------------------------------------------------------------------+
|        File Writing Summary       |              Filename             |
+-----------------------------------------------------------------------+
|SU2 binary restart                 |restart_flow_G2.dat                |
|Paraview                           |flow_G2.vtu                        |
|Paraview surface                   |surface_flow_G2.vtu                |
+-----------------------------------------------------------------------+
+-----------------------------------------------------------------------------+
|  Inner_Iter|     Min CFL|     Max CFL|      rms[P]|  Cauchy[CD]|          CD|
+-----------------------------------------------------------------------------+
|        3610|  7.1043e+00|  7.1043e+00|   -8.731021|  2.0753e-05|    0.037919|
|        3620|  4.3988e+01|  4.3988e+01|   -8.771876|  2.0129e-05|    0.037910|
|        3630|  4.3988e+01|  4.3988e+01|   -8.758893|  1.9947e-05|    0.037891|
|        3640|  4.3988e+01|  4.3988e+01|   -8.760383|  1.9806e-05|    0.037870|
|        3650|  4.3988e+01|  4.3988e+01|   -8.761986|  1.9667e-05|    0.037850|
|        3660|  4.3988e+01|  4.3988e+01|   -8.763883|  1.9511e-05|    0.037830|
|        3670|  4.3988e+01|  4.3988e+01|   -8.766943|  1.9354e-05|    0.037811|
|        3680|  4.3988e+01|  4.3988e+01|   -8.770505|  1.9213e-05|    0.037791|
|        3690|  4.3988e+01|  4.3988e+01|   -8.773840|  1.9075e-05|    0.037772|
|        3700|  4.3988e+01|  4.3988e+01|   -8.776838|  1.8930e-05|    0.037753|
|        3710|  4.3988e+01|  4.3988e+01|   -8.780440|  1.8785e-05|    0.037734|
|        3720|  4.3988e+01|  4.3988e+01|   -8.784357|  1.8644e-05|    0.037715|
|        3730|  4.3988e+01|  4.3988e+01|   -8.787716|  1.8500e-05|    0.037696|
|        3740|  4.3988e+01|  4.3988e+01|   -8.790749|  1.8354e-05|    0.037678|
|        3750|  4.3988e+01|  4.3988e+01|   -8.794422|  1.8210e-05|    0.037660|
|        3760|  4.3988e+01|  4.3988e+01|   -8.798463|  1.8067e-05|    0.037641|
|        3770|  4.3988e+01|  4.3988e+01|   -8.801876|  1.7924e-05|    0.037623|
|        3780|  4.3988e+01|  4.3988e+01|   -8.804947|  1.7782e-05|    0.037606|
|        3790|  4.3988e+01|  4.3988e+01|   -8.808489|  1.7644e-05|    0.037588|
|        3800|  4.3988e+01|  4.3988e+01|   -8.812147|  1.7508e-05|    0.037570|
+-----------------------------------------------------------------------+
|        File Writing Summary       |              Filename             |
+-----------------------------------------------------------------------+
|SU2 binary restart                 |restart_flow_G2.dat                |
|Paraview                           |flow_G2.vtu                        |
|Paraview surface                   |surface_flow_G2.vtu                |
+-----------------------------------------------------------------------+
+-----------------------------------------------------------------------------+
|  Inner_Iter|     Min CFL|     Max CFL|      rms[P]|  Cauchy[CD]|          CD|
+-----------------------------------------------------------------------------+
|        3810|  4.3988e+01|  4.3988e+01|   -8.815356|  1.7372e-05|    0.037553|
|        3820|  4.3988e+01|  4.3988e+01|   -8.818524|  1.7239e-05|    0.037536|
|        3830|  4.3988e+01|  4.3988e+01|   -8.822076|  1.7109e-05|    0.037519|
|        3840|  4.3988e+01|  4.3988e+01|   -8.825619|  1.7476e-05|    0.037502|
|        3850|  4.3988e+01|  4.3988e+01|   -8.828892|  1.7789e-05|    0.037485|
|        3860|  4.3988e+01|  4.3988e+01|   -8.832114|  1.8020e-05|    0.037468|
|        3870|  4.3988e+01|  4.3988e+01|   -8.835477|  1.8337e-05|    0.037452|
|        3880|  4.3988e+01|  4.3988e+01|   -8.838754|  1.8213e-05|    0.037435|
|        3890|  4.3988e+01|  4.3988e+01|   -8.841949|  1.8051e-05|    0.037419|
|        3900|  4.3988e+01|  4.3988e+01|   -8.845258|  1.7888e-05|    0.037403|
|        3910|  4.3988e+01|  4.3988e+01|   -8.848673|  1.7744e-05|    0.037387|
|        3920|  4.3988e+01|  4.3988e+01|   -8.852121|  1.7602e-05|    0.037371|
|        3930|  4.3988e+01|  4.3988e+01|   -8.855486|  1.7446e-05|    0.037355|
|        3940|  4.3988e+01|  4.3988e+01|   -8.858934|  1.7290e-05|    0.037340|
|        3950|  4.3988e+01|  4.3988e+01|   -8.862409|  1.7141e-05|    0.037324|
|        3960|  4.3988e+01|  4.3988e+01|   -8.865894|  1.6993e-05|    0.037309|
|        3970|  4.3988e+01|  4.3988e+01|   -8.869385|  1.6842e-05|    0.037294|
|        3980|  4.3988e+01|  4.3988e+01|   -8.872858|  1.6693e-05|    0.037279|
|        3990|  4.3988e+01|  4.3988e+01|   -8.876388|  1.6548e-05|    0.037264|
|        4000|  4.3988e+01|  4.3988e+01|   -8.879997|  1.6404e-05|    0.037250|
+-----------------------------------------------------------------------+
|        File Writing Summary       |              Filename             |
+-----------------------------------------------------------------------+
|SU2 binary restart                 |restart_flow_G2.dat                |
|Paraview                           |flow_G2.vtu                        |
|Paraview surface                   |surface_flow_G2.vtu                |
+-----------------------------------------------------------------------+
+-----------------------------------------------------------------------------+
|  Inner_Iter|     Min CFL|     Max CFL|      rms[P]|  Cauchy[CD]|          CD|
+-----------------------------------------------------------------------------+
|        4010|  4.3988e+01|  4.3988e+01|   -8.883613|  1.6260e-05|    0.037235|
|        4020|  4.3988e+01|  4.3988e+01|   -8.887171|  1.6120e-05|    0.037220|
|        4030|  4.3988e+01|  4.3988e+01|   -8.890700|  1.5981e-05|    0.037206|
|        4040|  4.3988e+01|  4.3988e+01|   -8.894277|  1.5843e-05|    0.037192|
|        4050|  4.3988e+01|  4.3988e+01|   -8.897867|  1.5704e-05|    0.037178|
|        4060|  4.3988e+01|  4.3988e+01|   -8.901490|  1.5567e-05|    0.037164|
|        4070|  4.3988e+01|  4.3988e+01|   -8.905177|  1.5431e-05|    0.037150|
|        4080|  4.3988e+01|  4.3988e+01|   -8.908825|  1.5296e-05|    0.037136|
|        4090|  4.3988e+01|  4.3988e+01|   -8.912462|  1.5160e-05|    0.037123|
|        4100|  4.3988e+01|  4.3988e+01|   -8.916097|  1.5025e-05|    0.037109|
|        4110|  4.3988e+01|  4.3988e+01|   -8.919723|  1.4892e-05|    0.037096|
|        4120|  4.3988e+01|  4.3988e+01|   -8.923317|  1.4759e-05|    0.037083|
|        4130|  4.3988e+01|  4.3988e+01|   -8.926878|  1.4628e-05|    0.037069|
|        4140|  4.3988e+01|  4.3988e+01|   -8.930390|  1.4498e-05|    0.037056|
|        4150|  4.3988e+01|  4.3988e+01|   -8.933887|  1.4371e-05|    0.037043|
|        4160|  4.3988e+01|  4.3988e+01|   -8.937366|  1.4246e-05|    0.037031|
|        4170|  4.3988e+01|  4.3988e+01|   -8.940820|  1.4123e-05|    0.037018|
|        4180|  4.3988e+01|  4.3988e+01|   -8.944303|  1.4002e-05|    0.037005|
|        4190|  4.3988e+01|  4.3988e+01|   -8.947762|  1.3883e-05|    0.036993|
|        4200|  4.3988e+01|  4.3988e+01|   -8.951232|  1.3765e-05|    0.036980|
+-----------------------------------------------------------------------+
|        File Writing Summary       |              Filename             |
+-----------------------------------------------------------------------+
|SU2 binary restart                 |restart_flow_G2.dat                |
|Paraview                           |flow_G2.vtu                        |
|Paraview surface                   |surface_flow_G2.vtu                |
+-----------------------------------------------------------------------+
+-----------------------------------------------------------------------------+
|  Inner_Iter|     Min CFL|     Max CFL|      rms[P]|  Cauchy[CD]|          CD|
+-----------------------------------------------------------------------------+
|        4210|  4.3988e+01|  4.3988e+01|   -8.954751|  1.3648e-05|    0.036968|
|        4220|  4.3988e+01|  4.3988e+01|   -8.958274|  1.3534e-05|    0.036956|
|        4230|  4.3988e+01|  4.3988e+01|   -8.961767|  1.3421e-05|    0.036943|
|        4240|  4.3988e+01|  4.3988e+01|   -8.965243|  1.3309e-05|    0.036931|
|        4250|  4.3988e+01|  4.3988e+01|   -8.968745|  1.3198e-05|    0.036920|
|        4260|  4.3988e+01|  4.3988e+01|   -8.972323|  1.3086e-05|    0.036908|
|        4270|  4.3988e+01|  4.3988e+01|   -8.975879|  1.2975e-05|    0.036896|
|        4280|  4.3988e+01|  4.3988e+01|   -8.979454|  1.2864e-05|    0.036885|
|        4290|  4.3988e+01|  4.3988e+01|   -8.983067|  1.2754e-05|    0.036873|
|        4300|  4.3988e+01|  4.3988e+01|   -8.986737|  1.2644e-05|    0.036862|
|        4310|  4.3988e+01|  4.3988e+01|   -8.990432|  1.2535e-05|    0.036851|
|        4320|  4.3988e+01|  4.3988e+01|   -8.994112|  1.2427e-05|    0.036839|
|        4330|  4.3988e+01|  4.3988e+01|   -8.997815|  1.2319e-05|    0.036828|
|        4340|  4.3988e+01|  4.3988e+01|   -9.001544|  1.2212e-05|    0.036817|
|        4350|  4.3988e+01|  4.3988e+01|   -9.005314|  1.2106e-05|    0.036807|
|        4360|  4.3988e+01|  4.3988e+01|   -9.009116|  1.2000e-05|    0.036796|
|        4370|  4.3988e+01|  4.3988e+01|   -9.012900|  1.1895e-05|    0.036785|
|        4380|  4.3988e+01|  4.3988e+01|   -9.016736|  1.1789e-05|    0.036775|
|        4390|  4.3988e+01|  4.3988e+01|   -9.020586|  1.1684e-05|    0.036764|
|        4400|  4.3988e+01|  4.3988e+01|   -9.024409|  1.1579e-05|    0.036754|
+-----------------------------------------------------------------------+
|        File Writing Summary       |              Filename             |
+-----------------------------------------------------------------------+
|SU2 binary restart                 |restart_flow_G2.dat                |
|Paraview                           |flow_G2.vtu                        |
|Paraview surface                   |surface_flow_G2.vtu                |
+-----------------------------------------------------------------------+
+-----------------------------------------------------------------------------+
|  Inner_Iter|     Min CFL|     Max CFL|      rms[P]|  Cauchy[CD]|          CD|
+-----------------------------------------------------------------------------+
|        4410|  4.3988e+01|  4.3988e+01|   -9.028180|  1.1474e-05|    0.036744|
|        4420|  4.3988e+01|  4.3988e+01|   -9.031952|  1.1369e-05|    0.036734|
|        4430|  4.3988e+01|  4.3988e+01|   -9.035740|  1.1264e-05|    0.036724|
|        4440|  4.3988e+01|  4.3988e+01|   -9.039531|  1.1160e-05|    0.036714|
|        4450|  4.3988e+01|  4.3988e+01|   -9.043312|  1.1056e-05|    0.036704|
|        4460|  4.3988e+01|  4.3988e+01|   -9.047050|  1.0952e-05|    0.036694|
|        4470|  4.3988e+01|  4.3988e+01|   -9.050791|  1.0849e-05|    0.036684|
|        4480|  4.3988e+01|  4.3988e+01|   -9.054480|  1.0746e-05|    0.036675|
|        4490|  4.3988e+01|  4.3988e+01|   -9.058097|  1.0644e-05|    0.036665|
|        4500|  4.3988e+01|  4.3988e+01|   -9.061670|  1.0544e-05|    0.036656|
|        4510|  4.3988e+01|  4.3988e+01|   -9.065228|  1.0444e-05|    0.036647|
|        4520|  4.3988e+01|  4.3988e+01|   -9.068757|  1.0346e-05|    0.036637|
|        4530|  4.3988e+01|  4.3988e+01|   -9.072229|  1.0250e-05|    0.036628|
|        4540|  4.3988e+01|  4.3988e+01|   -9.075701|  1.0155e-05|    0.036619|
|        4550|  4.3988e+01|  4.3988e+01|   -9.079158|  1.0062e-05|    0.036610|
|        4560|  4.3988e+01|  4.3988e+01|   -9.082599|  9.9696e-06|    0.036601|
|        4570|  4.3988e+01|  4.3988e+01|   -9.086019|  9.8786e-06|    0.036592|
|        4580|  4.3988e+01|  4.3988e+01|   -9.089431|  9.7890e-06|    0.036584|
|        4590|  4.3988e+01|  4.3988e+01|   -9.092856|  9.7009e-06|    0.036575|
|        4600|  4.3988e+01|  4.3988e+01|   -9.096306|  9.6141e-06|    0.036566|
+-----------------------------------------------------------------------+
|        File Writing Summary       |              Filename             |
+-----------------------------------------------------------------------+
|SU2 binary restart                 |restart_flow_G2.dat                |
|Paraview                           |flow_G2.vtu                        |
|Paraview surface                   |surface_flow_G2.vtu                |
+-----------------------------------------------------------------------+
+-----------------------------------------------------------------------------+
|  Inner_Iter|     Min CFL|     Max CFL|      rms[P]|  Cauchy[CD]|          CD|
+-----------------------------------------------------------------------------+
|        4610|  4.3988e+01|  4.3988e+01|   -9.099779|  9.5286e-06|    0.036558|
|        4620|  4.3988e+01|  4.3988e+01|   -9.103257|  9.4438e-06|    0.036549|
|        4630|  4.3988e+01|  4.3988e+01|   -9.106813|  9.3597e-06|    0.036541|
|        4640|  4.3988e+01|  4.3988e+01|   -9.110383|  9.2764e-06|    0.036532|
|        4650|  4.3988e+01|  4.3988e+01|   -9.113996|  9.1940e-06|    0.036524|
|        4660|  4.3988e+01|  4.3988e+01|   -9.117642|  9.1124e-06|    0.036516|
|        4670|  4.3988e+01|  4.3988e+01|   -9.121325|  9.0318e-06|    0.036508|
|        4680|  4.3988e+01|  4.3988e+01|   -9.125001|  8.9525e-06|    0.036500|
|        4690|  4.3988e+01|  4.3988e+01|   -9.128679|  8.8748e-06|    0.036492|
|        4700|  4.3988e+01|  4.3988e+01|   -9.132359|  8.7986e-06|    0.036484|
|        4710|  4.3988e+01|  4.3988e+01|   -9.136062|  8.7237e-06|    0.036476|
|        4720|  4.3988e+01|  4.3988e+01|   -9.139816|  8.6500e-06|    0.036468|
|        4730|  4.3988e+01|  4.3988e+01|   -9.143647|  8.5773e-06|    0.036460|
|        4740|  4.3988e+01|  4.3988e+01|   -9.147506|  8.5055e-06|    0.036453|
|        4750|  4.3988e+01|  4.3988e+01|   -9.151413|  8.4346e-06|    0.036445|
|        4760|  4.3988e+01|  4.3988e+01|   -9.155315|  8.3645e-06|    0.036438|
|        4770|  4.3988e+01|  4.3988e+01|   -9.159226|  8.2950e-06|    0.036430|
|        4780|  4.3988e+01|  4.3988e+01|   -9.163116|  8.2259e-06|    0.036423|
|        4790|  4.3988e+01|  4.3988e+01|   -9.167066|  8.1573e-06|    0.036415|
|        4800|  4.3988e+01|  4.3988e+01|   -9.170995|  8.0892e-06|    0.036408|
+-----------------------------------------------------------------------+
|        File Writing Summary       |              Filename             |
+-----------------------------------------------------------------------+
|SU2 binary restart                 |restart_flow_G2.dat                |
|Paraview                           |flow_G2.vtu                        |
|Paraview surface                   |surface_flow_G2.vtu                |
+-----------------------------------------------------------------------+
+-----------------------------------------------------------------------------+
|  Inner_Iter|     Min CFL|     Max CFL|      rms[P]|  Cauchy[CD]|          CD|
+-----------------------------------------------------------------------------+
|        4810|  4.3988e+01|  4.3988e+01|   -9.174956|  8.0213e-06|    0.036401|
|        4820|  4.3988e+01|  4.3988e+01|   -9.178934|  7.9537e-06|    0.036394|
|        4830|  4.3988e+01|  4.3988e+01|   -9.182914|  7.8864e-06|    0.036386|
|        4840|  4.3988e+01|  4.3988e+01|   -9.186866|  7.8194e-06|    0.036379|
|        4850|  4.3988e+01|  4.3988e+01|   -9.190795|  7.7528e-06|    0.036372|
|        4860|  4.3988e+01|  4.3988e+01|   -9.194707|  7.6867e-06|    0.036366|
|        4870|  4.3988e+01|  4.3988e+01|   -9.198625|  7.6214e-06|    0.036359|
|        4880|  4.3988e+01|  4.3988e+01|   -9.202560|  7.5570e-06|    0.036352|
|        4890|  4.3988e+01|  4.3988e+01|   -9.206474|  7.4932e-06|    0.036345|
|        4900|  4.3988e+01|  4.3988e+01|   -9.210376|  7.4300e-06|    0.036338|
|        4910|  4.3988e+01|  4.3988e+01|   -9.214281|  7.3672e-06|    0.036332|
|        4920|  4.3988e+01|  4.3988e+01|   -9.218183|  7.3047e-06|    0.036325|
|        4930|  4.3988e+01|  4.3988e+01|   -9.222096|  7.2423e-06|    0.036319|
|        4940|  4.3988e+01|  4.3988e+01|   -9.225997|  7.1800e-06|    0.036312|
|        4950|  4.3988e+01|  4.3988e+01|   -9.229881|  7.1178e-06|    0.036306|
|        4960|  4.3988e+01|  4.3988e+01|   -9.233754|  7.0559e-06|    0.036300|
|        4970|  4.3988e+01|  4.3988e+01|   -9.237628|  6.9945e-06|    0.036293|
|        4980|  4.3988e+01|  4.3988e+01|   -9.241519|  6.9335e-06|    0.036287|
|        4990|  4.3988e+01|  4.3988e+01|   -9.245408|  6.8730e-06|    0.036281|
|        5000|  4.3988e+01|  4.3988e+01|   -9.249295|  6.8128e-06|    0.036275|
+-----------------------------------------------------------------------+
|        File Writing Summary       |              Filename             |
+-----------------------------------------------------------------------+
|SU2 binary restart                 |restart_flow_G2.dat                |
|Paraview                           |flow_G2.vtu                        |
|Paraview surface                   |surface_flow_G2.vtu                |
+-----------------------------------------------------------------------+
+-----------------------------------------------------------------------------+
|  Inner_Iter|     Min CFL|     Max CFL|      rms[P]|  Cauchy[CD]|          CD|
+-----------------------------------------------------------------------------+
|        5010|  4.3988e+01|  4.3988e+01|   -9.253197|  6.7529e-06|    0.036269|
|        5020|  4.3988e+01|  4.3988e+01|   -9.257098|  6.6935e-06|    0.036263|
|        5030|  4.3988e+01|  4.3988e+01|   -9.261007|  6.6344e-06|    0.036257|
|        5040|  4.3988e+01|  4.3988e+01|   -9.264901|  6.5758e-06|    0.036251|
|        5050|  4.3988e+01|  4.3988e+01|   -9.268794|  6.5177e-06|    0.036245|
|        5060|  4.3988e+01|  4.3988e+01|   -9.272713|  6.4600e-06|    0.036239|
|        5070|  4.3988e+01|  4.3988e+01|   -9.276690|  6.4026e-06|    0.036234|
|        5080|  4.3988e+01|  4.3988e+01|   -9.280640|  6.3458e-06|    0.036228|
|        5090|  4.3988e+01|  4.3988e+01|   -9.284574|  6.2893e-06|    0.036222|
|        5100|  4.3988e+01|  4.3988e+01|   -9.288498|  6.2331e-06|    0.036217|
|        5110|  4.3988e+01|  4.3988e+01|   -9.292420|  6.1770e-06|    0.036211|
|        5120|  4.3988e+01|  4.3988e+01|   -9.296344|  6.1212e-06|    0.036206|
|        5130|  4.3988e+01|  4.3988e+01|   -9.300268|  6.0657e-06|    0.036200|
|        5140|  4.3988e+01|  4.3988e+01|   -9.304169|  6.0103e-06|    0.036195|
|        5150|  4.3988e+01|  4.3988e+01|   -9.308070|  5.9551e-06|    0.036190|
|        5160|  4.3988e+01|  4.3988e+01|   -9.311972|  5.9002e-06|    0.036184|
|        5170|  4.3988e+01|  4.3988e+01|   -9.315880|  5.8456e-06|    0.036179|
|        5180|  4.3988e+01|  4.3988e+01|   -9.319778|  5.7913e-06|    0.036174|
|        5190|  4.3988e+01|  4.3988e+01|   -9.323668|  5.7373e-06|    0.036169|
|        5200|  4.3988e+01|  4.3988e+01|   -9.327550|  5.6836e-06|    0.036164|
+-----------------------------------------------------------------------+
|        File Writing Summary       |              Filename             |
+-----------------------------------------------------------------------+
|SU2 binary restart                 |restart_flow_G2.dat                |
|Paraview                           |flow_G2.vtu                        |
|Paraview surface                   |surface_flow_G2.vtu                |
+-----------------------------------------------------------------------+
+-----------------------------------------------------------------------------+
|  Inner_Iter|     Min CFL|     Max CFL|      rms[P]|  Cauchy[CD]|          CD|
+-----------------------------------------------------------------------------+
|        5210|  4.3988e+01|  4.3988e+01|   -9.331428|  5.6301e-06|    0.036159|
|        5220|  4.3988e+01|  4.3988e+01|   -9.335304|  5.5767e-06|    0.036154|
|        5230|  4.3988e+01|  4.3988e+01|   -9.339171|  5.5235e-06|    0.036149|
|        5240|  4.3988e+01|  4.3988e+01|   -9.343037|  5.4703e-06|    0.036144|
|        5250|  4.3988e+01|  4.3988e+01|   -9.346882|  5.4173e-06|    0.036139|
|        5260|  4.3988e+01|  4.3988e+01|   -9.350714|  5.3644e-06|    0.036135|
|        5270|  4.3988e+01|  4.3988e+01|   -9.354539|  5.3116e-06|    0.036130|
|        5280|  4.3988e+01|  4.3988e+01|   -9.358354|  5.2591e-06|    0.036125|
|        5290|  4.3988e+01|  4.3988e+01|   -9.362157|  5.2068e-06|    0.036121|
|        5300|  4.3988e+01|  4.3988e+01|   -9.365946|  5.1550e-06|    0.036116|
|        5310|  4.3988e+01|  4.3988e+01|   -9.369719|  5.1035e-06|    0.036112|
|        5320|  4.3988e+01|  4.3988e+01|   -9.373473|  5.0525e-06|    0.036107|
|        5330|  4.3988e+01|  4.3988e+01|   -9.377201|  5.0020e-06|    0.036103|
|        5340|  4.3988e+01|  4.3988e+01|   -9.380890|  4.9519e-06|    0.036098|
|        5350|  4.3988e+01|  4.3988e+01|   -9.384602|  4.9023e-06|    0.036094|
|        5360|  4.3988e+01|  4.3988e+01|   -9.388301|  4.8533e-06|    0.036090|
|        5370|  4.3988e+01|  4.3988e+01|   -9.392019|  4.8047e-06|    0.036085|
|        5380|  4.3988e+01|  4.3988e+01|   -9.395717|  4.7566e-06|    0.036081|
|        5390|  4.3988e+01|  4.3988e+01|   -9.399384|  4.7091e-06|    0.036077|
|        5400|  4.3988e+01|  4.3988e+01|   -9.403029|  4.6623e-06|    0.036073|
+-----------------------------------------------------------------------+
|        File Writing Summary       |              Filename             |
+-----------------------------------------------------------------------+
|SU2 binary restart                 |restart_flow_G2.dat                |
|Paraview                           |flow_G2.vtu                        |
|Paraview surface                   |surface_flow_G2.vtu                |
+-----------------------------------------------------------------------+
+-----------------------------------------------------------------------------+
|  Inner_Iter|     Min CFL|     Max CFL|      rms[P]|  Cauchy[CD]|          CD|
+-----------------------------------------------------------------------------+
|        5410|  4.3988e+01|  4.3988e+01|   -9.406656|  4.6162e-06|    0.036069|
|        5420|  4.3988e+01|  4.3988e+01|   -9.410246|  4.5708e-06|    0.036065|
|        5430|  4.3988e+01|  4.3988e+01|   -9.413794|  4.5262e-06|    0.036061|
|        5440|  4.3988e+01|  4.3988e+01|   -9.417309|  4.4824e-06|    0.036057|
|        5450|  4.3988e+01|  4.3988e+01|   -9.420819|  4.4393e-06|    0.036053|
|        5460|  4.3988e+01|  4.3988e+01|   -9.424359|  4.3971e-06|    0.036049|
|        5470|  4.3988e+01|  4.3988e+01|   -9.427950|  4.3557e-06|    0.036045|
|        5480|  4.3988e+01|  4.3988e+01|   -9.431582|  4.3150e-06|    0.036041|
|        5490|  4.3988e+01|  4.3988e+01|   -9.435227|  4.2750e-06|    0.036037|
|        5500|  4.3988e+01|  4.3988e+01|   -9.438865|  4.2358e-06|    0.036033|
|        5510|  4.3988e+01|  4.3988e+01|   -9.442496|  4.1973e-06|    0.036030|
|        5520|  4.3988e+01|  4.3988e+01|   -9.446126|  4.1594e-06|    0.036026|
|        5530|  4.3988e+01|  4.3988e+01|   -9.449739|  4.1223e-06|    0.036022|
|        5540|  4.3988e+01|  4.3988e+01|   -9.453382|  4.0856e-06|    0.036019|
|        5550|  4.3988e+01|  4.3988e+01|   -9.457055|  4.0496e-06|    0.036015|
|        5560|  4.3988e+01|  4.3988e+01|   -9.460800|  4.0140e-06|    0.036011|
|        5570|  4.3988e+01|  4.3988e+01|   -9.464597|  3.9788e-06|    0.036008|
|        5580|  4.3988e+01|  4.3988e+01|   -9.468408|  3.9441e-06|    0.036004|
|        5590|  4.3988e+01|  4.3988e+01|   -9.472224|  3.9098e-06|    0.036001|
|        5600|  4.3988e+01|  4.3988e+01|   -9.476064|  3.8760e-06|    0.035997|
+-----------------------------------------------------------------------+
|        File Writing Summary       |              Filename             |
+-----------------------------------------------------------------------+
|SU2 binary restart                 |restart_flow_G2.dat                |
|Paraview                           |flow_G2.vtu                        |
|Paraview surface                   |surface_flow_G2.vtu                |
+-----------------------------------------------------------------------+
+-----------------------------------------------------------------------------+
|  Inner_Iter|     Min CFL|     Max CFL|      rms[P]|  Cauchy[CD]|          CD|
+-----------------------------------------------------------------------------+
|        5610|  4.3988e+01|  4.3988e+01|   -9.479945|  3.8427e-06|    0.035994|
|        5620|  4.3988e+01|  4.3988e+01|   -9.483856|  3.8099e-06|    0.035990|
|        5630|  4.3988e+01|  4.3988e+01|   -9.487789|  3.7776e-06|    0.035987|
|        5640|  4.3988e+01|  4.3988e+01|   -9.491752|  3.7457e-06|    0.035983|
|        5650|  4.3988e+01|  4.3988e+01|   -9.495759|  3.7141e-06|    0.035980|
|        5660|  4.3988e+01|  4.3988e+01|   -9.499796|  3.6828e-06|    0.035977|
|        5670|  4.3988e+01|  4.3988e+01|   -9.503844|  3.6518e-06|    0.035974|
|        5680|  4.3988e+01|  4.3988e+01|   -9.507888|  3.6210e-06|    0.035970|
|        5690|  4.3988e+01|  4.3988e+01|   -9.511925|  3.5904e-06|    0.035967|
|        5700|  4.3988e+01|  4.3988e+01|   -9.515958|  3.5600e-06|    0.035964|
|        5710|  4.3988e+01|  4.3988e+01|   -9.519997|  3.5298e-06|    0.035961|
|        5720|  4.3988e+01|  4.3988e+01|   -9.524017|  3.4999e-06|    0.035957|
|        5730|  4.3988e+01|  4.3988e+01|   -9.528048|  3.4702e-06|    0.035954|
|        5740|  4.3988e+01|  4.3988e+01|   -9.532102|  3.4407e-06|    0.035951|
|        5750|  4.3988e+01|  4.3988e+01|   -9.536156|  3.4114e-06|    0.035948|
|        5760|  4.3988e+01|  4.3988e+01|   -9.540203|  3.3822e-06|    0.035945|
|        5770|  4.3988e+01|  4.3988e+01|   -9.544237|  3.3532e-06|    0.035942|
|        5780|  4.3988e+01|  4.3988e+01|   -9.548261|  3.3244e-06|    0.035939|
|        5790|  4.3988e+01|  4.3988e+01|   -9.552287|  3.2957e-06|    0.035936|
|        5800|  4.3988e+01|  4.3988e+01|   -9.556320|  3.2672e-06|    0.035933|
+-----------------------------------------------------------------------+
|        File Writing Summary       |              Filename             |
+-----------------------------------------------------------------------+
|SU2 binary restart                 |restart_flow_G2.dat                |
|Paraview                           |flow_G2.vtu                        |
|Paraview surface                   |surface_flow_G2.vtu                |
+-----------------------------------------------------------------------+
+-----------------------------------------------------------------------------+
|  Inner_Iter|     Min CFL|     Max CFL|      rms[P]|  Cauchy[CD]|          CD|
+-----------------------------------------------------------------------------+
|        5810|  4.3988e+01|  4.3988e+01|   -9.560360|  3.2389e-06|    0.035930|
|        5820|  4.3988e+01|  4.3988e+01|   -9.564396|  3.2107e-06|    0.035927|
|        5830|  4.3988e+01|  4.3988e+01|   -9.568417|  3.1827e-06|    0.035925|
|        5840|  4.3988e+01|  4.3988e+01|   -9.572421|  3.1548e-06|    0.035922|
|        5850|  4.3988e+01|  4.3988e+01|   -9.576416|  3.1270e-06|    0.035919|
|        5860|  4.3988e+01|  4.3988e+01|   -9.580434|  3.0993e-06|    0.035916|
|        5870|  4.3988e+01|  4.3988e+01|   -9.584446|  3.0717e-06|    0.035913|
|        5880|  4.3988e+01|  4.3988e+01|   -9.588464|  3.0443e-06|    0.035911|
|        5890|  4.3988e+01|  4.3988e+01|   -9.592486|  3.0171e-06|    0.035908|
|        5900|  4.3988e+01|  4.3988e+01|   -9.596500|  2.9899e-06|    0.035905|
|        5910|  4.3988e+01|  4.3988e+01|   -9.600500|  2.9630e-06|    0.035903|
|        5920|  4.3988e+01|  4.3988e+01|   -9.604492|  2.9363e-06|    0.035900|
|        5930|  4.3988e+01|  4.3988e+01|   -9.608489|  2.9098e-06|    0.035897|
|        5940|  4.3988e+01|  4.3988e+01|   -9.612498|  2.8835e-06|    0.035895|
|        5950|  4.3988e+01|  4.3988e+01|   -9.616516|  2.8574e-06|    0.035892|
|        5960|  4.3988e+01|  4.3988e+01|   -9.620527|  2.8315e-06|    0.035890|
|        5970|  4.3988e+01|  4.3988e+01|   -9.624536|  2.8057e-06|    0.035887|
|        5980|  4.3988e+01|  4.3988e+01|   -9.628565|  2.7801e-06|    0.035885|
|        5990|  4.3988e+01|  4.3988e+01|   -9.632615|  2.7548e-06|    0.035882|
|        6000|  4.3988e+01|  4.3988e+01|   -9.636665|  2.7296e-06|    0.035880|
+-----------------------------------------------------------------------+
|        File Writing Summary       |              Filename             |
+-----------------------------------------------------------------------+
|SU2 binary restart                 |restart_flow_G2.dat                |
|Paraview                           |flow_G2.vtu                        |
|Paraview surface                   |surface_flow_G2.vtu                |
+-----------------------------------------------------------------------+
+-----------------------------------------------------------------------------+
|  Inner_Iter|     Min CFL|     Max CFL|      rms[P]|  Cauchy[CD]|          CD|
+-----------------------------------------------------------------------------+
|        6010|  4.3988e+01|  4.3988e+01|   -9.640719|  2.7045e-06|    0.035878|
|        6020|  4.3988e+01|  4.3988e+01|   -9.644759|  2.6797e-06|    0.035875|
|        6030|  4.3988e+01|  4.3988e+01|   -9.648761|  2.6551e-06|    0.035873|
|        6040|  4.3988e+01|  4.3988e+01|   -9.652744|  2.6308e-06|    0.035870|
|        6050|  4.3988e+01|  4.3988e+01|   -9.656725|  2.6066e-06|    0.035868|
|        6060|  4.3988e+01|  4.3988e+01|   -9.660692|  2.5827e-06|    0.035866|
|        6070|  4.3988e+01|  4.3988e+01|   -9.664661|  2.5590e-06|    0.035863|
|        6080|  4.3988e+01|  4.3988e+01|   -9.668634|  2.5356e-06|    0.035861|
|        6090|  4.3988e+01|  4.3988e+01|   -9.672602|  2.5124e-06|    0.035859|
|        6100|  4.3988e+01|  4.3988e+01|   -9.676558|  2.4894e-06|    0.035857|
|        6110|  4.3988e+01|  4.3988e+01|   -9.680508|  2.4667e-06|    0.035855|
|        6120|  4.3988e+01|  4.3988e+01|   -9.684461|  2.4441e-06|    0.035852|
|        6130|  4.3988e+01|  4.3988e+01|   -9.688422|  2.4217e-06|    0.035850|
|        6140|  4.3988e+01|  4.3988e+01|   -9.692394|  2.3996e-06|    0.035848|
|        6150|  4.3988e+01|  4.3988e+01|   -9.696375|  2.3776e-06|    0.035846|
|        6160|  4.3988e+01|  4.3988e+01|   -9.700362|  2.3557e-06|    0.035844|
|        6170|  4.3988e+01|  4.3988e+01|   -9.704350|  2.3340e-06|    0.035842|
|        6180|  4.3988e+01|  4.3988e+01|   -9.708333|  2.3124e-06|    0.035840|
|        6190|  4.3988e+01|  4.3988e+01|   -9.712305|  2.2911e-06|    0.035838|
|        6200|  4.3988e+01|  4.3988e+01|   -9.716273|  2.2699e-06|    0.035836|
+-----------------------------------------------------------------------+
|        File Writing Summary       |              Filename             |
+-----------------------------------------------------------------------+
|SU2 binary restart                 |restart_flow_G2.dat                |
|Paraview                           |flow_G2.vtu                        |
|Paraview surface                   |surface_flow_G2.vtu                |
+-----------------------------------------------------------------------+
+-----------------------------------------------------------------------------+
|  Inner_Iter|     Min CFL|     Max CFL|      rms[P]|  Cauchy[CD]|          CD|
+-----------------------------------------------------------------------------+
|        6210|  4.3988e+01|  4.3988e+01|   -9.720247|  2.2489e-06|    0.035834|
|        6220|  4.3988e+01|  4.3988e+01|   -9.724244|  2.2281e-06|    0.035832|
|        6230|  4.3988e+01|  4.3988e+01|   -9.728269|  2.2074e-06|    0.035830|
|        6240|  4.3988e+01|  4.3988e+01|   -9.732303|  2.1869e-06|    0.035828|
|        6250|  4.3988e+01|  4.3988e+01|   -9.736305|  2.1666e-06|    0.035826|
|        6260|  4.3988e+01|  4.3988e+01|   -9.740302|  2.1465e-06|    0.035824|
|        6270|  4.3988e+01|  4.3988e+01|   -9.744278|  2.1266e-06|    0.035822|
|        6280|  4.3988e+01|  4.3988e+01|   -9.748246|  2.1068e-06|    0.035820|
|        6290|  4.3988e+01|  4.3988e+01|   -9.752220|  2.0872e-06|    0.035818|
|        6300|  4.3988e+01|  4.3988e+01|   -9.756202|  2.0678e-06|    0.035816|
|        6310|  4.3988e+01|  4.3988e+01|   -9.760186|  2.0485e-06|    0.035815|
|        6320|  4.3988e+01|  4.3988e+01|   -9.764171|  2.0294e-06|    0.035813|
|        6330|  4.3988e+01|  4.3988e+01|   -9.768143|  2.0105e-06|    0.035811|
|        6340|  4.3988e+01|  4.3988e+01|   -9.772094|  1.9918e-06|    0.035809|
|        6350|  4.3988e+01|  4.3988e+01|   -9.775990|  1.9732e-06|    0.035807|
|        6360|  4.3988e+01|  4.3988e+01|   -9.779921|  1.9548e-06|    0.035806|
|        6370|  4.3988e+01|  4.3988e+01|   -9.783851|  1.9366e-06|    0.035804|
|        6380|  4.3988e+01|  4.3988e+01|   -9.787775|  1.9186e-06|    0.035802|
|        6390|  4.3988e+01|  4.3988e+01|   -9.791692|  1.9008e-06|    0.035801|
|        6400|  4.3988e+01|  4.3988e+01|   -9.795580|  1.8831e-06|    0.035799|
+-----------------------------------------------------------------------+
|        File Writing Summary       |              Filename             |
+-----------------------------------------------------------------------+
|SU2 binary restart                 |restart_flow_G2.dat                |
|Paraview                           |flow_G2.vtu                        |
|Paraview surface                   |surface_flow_G2.vtu                |
+-----------------------------------------------------------------------+
+-----------------------------------------------------------------------------+
|  Inner_Iter|     Min CFL|     Max CFL|      rms[P]|  Cauchy[CD]|          CD|
+-----------------------------------------------------------------------------+
|        6410|  4.3988e+01|  4.3988e+01|   -9.799478|  1.8657e-06|    0.035797|
|        6420|  4.3988e+01|  4.3988e+01|   -9.803404|  1.8485e-06|    0.035796|
|        6430|  4.3988e+01|  4.3988e+01|   -9.807335|  1.8315e-06|    0.035794|
|        6440|  4.3988e+01|  4.3988e+01|   -9.811259|  1.8146e-06|    0.035792|
|        6450|  4.3988e+01|  4.3988e+01|   -9.815176|  1.7979e-06|    0.035791|
|        6460|  4.3988e+01|  4.3988e+01|   -9.819107|  1.7814e-06|    0.035789|
|        6470|  4.3988e+01|  4.3988e+01|   -9.823049|  1.7650e-06|    0.035788|
|        6480|  4.3988e+01|  4.3988e+01|   -9.826998|  1.7488e-06|    0.035786|
|        6490|  4.3988e+01|  4.3988e+01|   -9.830955|  1.7328e-06|    0.035784|
|        6500|  4.3988e+01|  4.3988e+01|   -9.834923|  1.7170e-06|    0.035783|
|        6510|  4.3988e+01|  4.3988e+01|   -9.838901|  1.7013e-06|    0.035781|
|        6520|  4.3988e+01|  4.3988e+01|   -9.842887|  1.6858e-06|    0.035780|
|        6530|  4.3988e+01|  4.3988e+01|   -9.846878|  1.6705e-06|    0.035778|
|        6540|  4.3988e+01|  4.3988e+01|   -9.850876|  1.6554e-06|    0.035777|
|        6550|  4.3988e+01|  4.3988e+01|   -9.854877|  1.6404e-06|    0.035775|
|        6560|  4.3988e+01|  4.3988e+01|   -9.858881|  1.6255e-06|    0.035774|
|        6570|  4.3988e+01|  4.3988e+01|   -9.862890|  1.6109e-06|    0.035772|
|        6580|  4.3988e+01|  4.3988e+01|   -9.866900|  1.5963e-06|    0.035771|
|        6590|  4.3988e+01|  4.3988e+01|   -9.870911|  1.5820e-06|    0.035770|
|        6600|  4.3988e+01|  4.3988e+01|   -9.874926|  1.5678e-06|    0.035768|
+-----------------------------------------------------------------------+
|        File Writing Summary       |              Filename             |
+-----------------------------------------------------------------------+
|SU2 binary restart                 |restart_flow_G2.dat                |
|Paraview                           |flow_G2.vtu                        |
|Paraview surface                   |surface_flow_G2.vtu                |
+-----------------------------------------------------------------------+
+-----------------------------------------------------------------------------+
|  Inner_Iter|     Min CFL|     Max CFL|      rms[P]|  Cauchy[CD]|          CD|
+-----------------------------------------------------------------------------+
|        6610|  4.3988e+01|  4.3988e+01|   -9.878942|  1.5537e-06|    0.035767|
|        6620|  4.3988e+01|  4.3988e+01|   -9.882957|  1.5398e-06|    0.035765|
|        6630|  4.3988e+01|  4.3988e+01|   -9.886973|  1.5260e-06|    0.035764|
|        6640|  4.3988e+01|  4.3988e+01|   -9.890991|  1.5124e-06|    0.035763|
|        6650|  4.3988e+01|  4.3988e+01|   -9.894997|  1.4989e-06|    0.035761|
|        6660|  4.3988e+01|  4.3988e+01|   -9.899018|  1.4855e-06|    0.035760|
|        6670|  4.3988e+01|  4.3988e+01|   -9.903040|  1.4722e-06|    0.035759|
|        6680|  4.3988e+01|  4.3988e+01|   -9.907066|  1.4591e-06|    0.035757|
|        6690|  4.3988e+01|  4.3988e+01|   -9.911101|  1.4460e-06|    0.035756|
|        6700|  4.3988e+01|  4.3988e+01|   -9.915136|  1.4331e-06|    0.035755|
|        6710|  4.3988e+01|  4.3988e+01|   -9.919174|  1.4203e-06|    0.035754|
|        6720|  4.3988e+01|  4.3988e+01|   -9.923218|  1.4076e-06|    0.035752|
|        6730|  4.3988e+01|  4.3988e+01|   -9.927265|  1.3950e-06|    0.035751|
|        6740|  4.3988e+01|  4.3988e+01|   -9.931324|  1.3825e-06|    0.035750|
|        6750|  4.3988e+01|  4.3988e+01|   -9.935382|  1.3701e-06|    0.035749|
|        6760|  4.3988e+01|  4.3988e+01|   -9.939445|  1.3578e-06|    0.035747|
|        6770|  4.3988e+01|  4.3988e+01|   -9.943512|  1.3457e-06|    0.035746|
|        6780|  4.3988e+01|  4.3988e+01|   -9.947583|  1.3336e-06|    0.035745|
|        6790|  4.3988e+01|  4.3988e+01|   -9.951657|  1.3216e-06|    0.035744|
|        6800|  4.3988e+01|  4.3988e+01|   -9.955732|  1.3097e-06|    0.035743|
+-----------------------------------------------------------------------+
|        File Writing Summary       |              Filename             |
+-----------------------------------------------------------------------+
|SU2 binary restart                 |restart_flow_G2.dat                |
|Paraview                           |flow_G2.vtu                        |
|Paraview surface                   |surface_flow_G2.vtu                |
+-----------------------------------------------------------------------+
+-----------------------------------------------------------------------------+
|  Inner_Iter|     Min CFL|     Max CFL|      rms[P]|  Cauchy[CD]|          CD|
+-----------------------------------------------------------------------------+
|        6810|  4.3988e+01|  4.3988e+01|   -9.959812|  1.2979e-06|    0.035741|
|        6820|  4.3988e+01|  4.3988e+01|   -9.963896|  1.2862e-06|    0.035740|
|        6830|  4.3988e+01|  4.3988e+01|   -9.967985|  1.2746e-06|    0.035739|
|        6840|  4.3988e+01|  4.3988e+01|   -9.972078|  1.2631e-06|    0.035738|
|        6850|  4.3988e+01|  4.3988e+01|   -9.976173|  1.2517e-06|    0.035737|
|        6860|  4.3988e+01|  4.3988e+01|   -9.980269|  1.2404e-06|    0.035736|
|        6870|  4.3988e+01|  4.3988e+01|   -9.984362|  1.2291e-06|    0.035735|
|        6880|  4.3988e+01|  4.3988e+01|   -9.988448|  1.2180e-06|    0.035734|
|        6890|  4.3988e+01|  4.3988e+01|   -9.992523|  1.2069e-06|    0.035733|
|        6900|  4.3988e+01|  4.3988e+01|   -9.996591|  1.1959e-06|    0.035731|
|        6910|  4.3988e+01|  4.3988e+01|  -10.000652|  1.1850e-06|    0.035730|
|        6920|  4.3988e+01|  4.3988e+01|  -10.004679|  1.1742e-06|    0.035729|
|        6930|  4.3988e+01|  4.3988e+01|  -10.008731|  1.1635e-06|    0.035728|
|        6940|  4.3988e+01|  4.3988e+01|  -10.012780|  1.1529e-06|    0.035727|
|        6950|  4.3988e+01|  4.3988e+01|  -10.016802|  1.1423e-06|    0.035726|
|        6960|  4.3988e+01|  4.3988e+01|  -10.020853|  1.1319e-06|    0.035725|
|        6970|  4.3988e+01|  4.3988e+01|  -10.024901|  1.1215e-06|    0.035724|
|        6980|  4.3988e+01|  4.3988e+01|  -10.028947|  1.1112e-06|    0.035723|
|        6990|  4.3988e+01|  4.3988e+01|  -10.032992|  1.1010e-06|    0.035722|
|        7000|  4.3988e+01|  4.3988e+01|  -10.037039|  1.0909e-06|    0.035721|
+-----------------------------------------------------------------------+
|        File Writing Summary       |              Filename             |
+-----------------------------------------------------------------------+
|SU2 binary restart                 |restart_flow_G2.dat                |
|Paraview                           |flow_G2.vtu                        |
|Paraview surface                   |surface_flow_G2.vtu                |
+-----------------------------------------------------------------------+
+-----------------------------------------------------------------------------+
|  Inner_Iter|     Min CFL|     Max CFL|      rms[P]|  Cauchy[CD]|          CD|
+-----------------------------------------------------------------------------+
|        7010|  4.3988e+01|  4.3988e+01|  -10.041086|  1.0809e-06|    0.035720|
|        7020|  4.3988e+01|  4.3988e+01|  -10.045133|  1.0710e-06|    0.035719|
|        7030|  4.3988e+01|  4.3988e+01|  -10.049179|  1.0611e-06|    0.035718|
|        7040|  4.3988e+01|  4.3988e+01|  -10.053220|  1.0513e-06|    0.035718|
|        7050|  4.3988e+01|  4.3988e+01|  -10.057258|  1.0416e-06|    0.035717|
|        7060|  4.3988e+01|  4.3988e+01|  -10.061307|  1.0320e-06|    0.035716|
|        7070|  4.3988e+01|  4.3988e+01|  -10.065355|  1.0225e-06|    0.035715|
|        7080|  4.3988e+01|  4.3988e+01|  -10.069399|  1.0131e-06|    0.035714|
|        7090|  4.3988e+01|  4.3988e+01|  -10.073443|  1.0037e-06|    0.035713|
|        7095|  4.3988e+01|  4.3988e+01|  -10.075466|  9.9911e-07|    0.035713|

----------------------------- Solver Exit -------------------------------
All convergence criteria satisfied.
+-----------------------------------------------------------------------+
|      Convergence Field     |     Value    |   Criterion  |  Converged |
+-----------------------------------------------------------------------+
|                      rms[P]|      -10.0755|          < -9|         Yes|
|                  Cauchy[CD]|   9.99108e-07|       < 1e-06|         Yes|
+-----------------------------------------------------------------------+
-------------------------------------------------------------------------
+-----------------------------------------------------------------------+
|        File Writing Summary       |              Filename             |
+-----------------------------------------------------------------------+
|SU2 binary restart                 |restart_flow_G2.dat                |
|Paraview                           |flow_G2.vtu                        |
|Paraview surface                   |surface_flow_G2.vtu                |
+-----------------------------------------------------------------------+

------------------------- Solver Postprocessing -------------------------
Deleted CNumerics container.
Deleted CIntegration container.
Deleted CSolver container.
Deleted CIteration container.
Deleted CInterface container.
Deleted CGeometry container.
Deleted CFreeFormDefBox class.
Deleted CSurfaceMovement class.
Deleted CVolumetricMovement class.
Deleted CConfig container.
Deleted nInst container.
Deleted COutput class.
-------------------------------------------------------------------------

------------------------- Exit Success (SU2_CFD) ------------------------

