
-------------------------------------------------------------------------
|    ___ _   _ ___                                                      |
|   / __| | | |_  )   Release 7.4.0 "Blackbird"                         |
|   \__ \ |_| |/ /                                                      |
|   |___/\___//___|   Suite (Computational Fluid Dynamics Code)         |
|                                                                       |
-------------------------------------------------------------------------
| SU2 Project Website: https://su2code.github.io                        |
|                                                                       |
| The SU2 Project is maintained by the SU2 Foundation                   |
| (http://su2foundation.org)                                            |
-------------------------------------------------------------------------
| Copyright 2012-2022, SU2 Contributors                                 |
|                                                                       |
| SU2 is free software; you can redistribute it and/or                  |
| modify it under the terms of the GNU Lesser General Public            |
| License as published by the Free Software Foundation; either          |
| version 2.1 of the License, or (at your option) any later version.    |
|                                                                       |
| SU2 is distributed in the hope that it will be useful,                |
| but WITHOUT ANY WARRANTY; without even the implied warranty of        |
| MERCHANTABILITY or FITNESS FOR A PARTICULAR PURPOSE. See the GNU      |
| Lesser General Public License for more details.                       |
|                                                                       |
| You should have received a copy of the GNU Lesser General Public      |
| License along with SU2. If not, see <http://www.gnu.org/licenses/>.   |
-------------------------------------------------------------------------

Parsing config file for zone 0

----------------- Physical Case Definition ( Zone 0 ) -------------------
Incompressible RANS equations.
Turbulence model: Menter's k-omega SST-2003m with no production modification.
Hybrid RANS/LES: No Hybrid RANS/LES
No restart solution, use the values at infinity (freestream).
Non-Dimensional simulation using intialization values.
The reference area is 1 m^2.
The semi-span will be computed using the max y(3D) value.
The reference length is 1.00898 m.
Reference origin for moment evaluation is (-0.756, 0, 0).
Surface(s) where the force coefficients are evaluated: AIRFOIL.

Surface(s) plotted in the output file: AIRFOIL.
Input mesh file name: ../meshG5/meshG5.su2

--------------- Space Numerical Integration ( Zone 0 ) ------------------
Flux difference splitting (FDS) upwind scheme for the flow inviscid terms.
First order integration in space.
Average of gradients with correction (viscous flow terms).
Average of gradients with correction (viscous turbulence terms).
Gradient for upwind reconstruction: unweighted Least-Squares.
Gradient for viscous and source terms: Green-Gauss.

--------------- Time Numerical Integration  ( Zone 0 ) ------------------
Local time stepping (steady state simulation).
Euler implicit method for the flow equations.
FGMRES is used for solving the linear system.
Using a ILU(0) preconditioning.
Convergence criteria of the linear solver: 1e-06.
Max number of linear iterations: 10.
CFL adaptation. Factor down: 0.1, factor up: 1.2,
                lower limit: 1, upper limit: 1000,
                acceptable linear residual: 0.001.
Courant-Friedrichs-Lewy number:        2
Euler implicit time integration for the turbulence model.

------------------ Convergence Criteria  ( Zone 0 ) ---------------------
Maximum number of solver subiterations: 9999.
Begin convergence monitoring at iteration 10.
Residual minimum value: 1e-9.
Cauchy series min. value: 1e-06.
Number of Cauchy elements: 250.
Begin windowed time average at iteration 0.

-------------------- Output Information ( Zone 0 ) ----------------------
File writing frequency: 
+------------------------------------+
|                     File| Frequency|
+------------------------------------+
|                  RESTART|       200|
|                 PARAVIEW|       200|
|         SURFACE_PARAVIEW|       200|
+------------------------------------+
Writing the convergence history file every 1 inner iterations.
Writing the screen convergence history every 10 inner iterations.
The tabular file format is CSV (.csv).
Convergence history file name: history_G5.
Forces breakdown file name: forces_breakdown.dat.
Surface file name: surface_flow_G5.
Volume file name: flow_G5.
Restart file name: restart_flow_G5.dat.

------------- Config File Boundary Information ( Zone 0 ) ---------------
+-----------------------------------------------------------------------+
|                        Marker Type|                        Marker Name|
+-----------------------------------------------------------------------+
|                          Far-field|                           FARFIELD|
+-----------------------------------------------------------------------+
|                     Heat flux wall|                            AIRFOIL|
+-----------------------------------------------------------------------+

-------------------- Output Preprocessing ( Zone 0 ) --------------------

WARNING: SURFACE_PRESSURE_DROP can only be computed for at least 2 surfaces (outlet, inlet, ...)

Screen output fields: INNER_ITER, MIN_CFL, MAX_CFL, RMS_PRESSURE, CAUCHY_DRAG, DRAG
History output group(s): INNER_ITER, MIN_CFL, MAX_CFL, RMS_RES, LIFT, DRAG, MOMENT_Z, CAUCHY
Convergence field(s): RMS_PRESSURE, DRAG
Warning: No (valid) fields chosen for time convergence monitoring. Time convergence monitoring inactive.
Volume output fields: COORDINATES, SOLUTION, PRIMITIVE, RESIDUAL, MESH_QUALITY

------------------- Geometry Preprocessing ( Zone 0 ) -------------------
Two dimensional problem.
206952 grid points before partitioning.
205920 volume elements before partitioning.
2 surface markers.
618 boundary elements in index 0 (Marker = AIRFOIL).
1446 boundary elements in index 1 (Marker = FARFIELD).
Executing the partitioning functions.
Building the graph adjacency structure.
Calling ParMETIS... graph partitioning complete (2200 edge cuts).
Distributing ParMETIS coloring.
Rebalancing vertices.
Rebalancing volume element connectivity.
Rebalancing markers and surface elements.
211358 vertices including ghost points. 
208115 interior elements including halo cells. 
208115 quadrilaterals.
Establishing MPI communication patterns.
Setting point connectivity.
Renumbering points (Reverse Cuthill McKee Ordering).
Recomputing point connectivity.
Setting element connectivity.
Checking the numerical grid orientation.
All volume elements are correctly orientend.
There has been a re-orientation of 1038 LINE surface elements.
Identifying edges and vertices.
Setting the control volume structure.
Area of the computational grid: 3228.87.
Searching for the closest normal neighbors to the surfaces.
Storing a mapping from global to local point index.
Compute the surface curvature.
Max K: 1.14063e+11. Mean K: 2.38006e+09. Standard deviation K: 1.40906e+10.
Checking for periodicity.
Computing mesh quality statistics for the dual control volumes.
+--------------------------------------------------------------+
|           Mesh Quality Metric|        Minimum|        Maximum|
+--------------------------------------------------------------+
|    Orthogonality Angle (deg.)|        62.3682|             90|
|     CV Face Area Aspect Ratio|        1.00006|    1.39005e+08|
|           CV Sub-Volume Ratio|              1|        92639.1|
+--------------------------------------------------------------+
Finding max control volume width.
Communicating number of neighbors.
Wetted area = 2.05961 m.
Area projection in the x-plane = 0.121112 m, y-plane = 1.00878 m.
Max. coordinate in the x-direction = 1.00898 m, y-direction = 0.075984 m.
Min. coordinate in the x-direction = 4e-06 m, y-direction = -0.0451351 m.
Computing wall distances.

-------------------- Solver Preprocessing ( Zone 0 ) --------------------
Incompressible flow: rho_ref, vel_ref, and temp_ref
are based on the initial values, p_ref = rho_ref*vel_ref^2.
Force coefficients computed using initial values.
The reference area for force coeffs. is 1 m^2.
The reference length for force coeffs. is 1.00898 m.
The pressure is decomposed into thermodynamic and dynamic components.
The initial value of the dynamic pressure is 0.
Mach number: 0.0276748, computed using the Bulk modulus.
For external flows, the initial state is imposed at the far-field.
Angle of attack (deg): 17.9997, computed using the initial velocity.
Side slip angle (deg): 0, computed using the initial velocity.
Reynolds number per meter: 595002, computed using initial values.
Reynolds number is a byproduct of inputs only (not used internally).
SI units only. The grid should be dimensional (meters).
No energy equation.

-- Models:
+------------------------------------------------------------------------------+
|          Viscosity Model|        Conductivity Model|              Fluid Model|
+------------------------------------------------------------------------------+
|       CONSTANT_VISCOSITY|          CONSTANT_PRANDTL|         CONSTANT_DENSITY|
+------------------------------------------------------------------------------+
-- Fluid properties:
+------------------------------------------------------------------------------+
|                  Name|    Dim. value|    Ref. value|      Unit|Non-dim. value|
+------------------------------------------------------------------------------+
|             Viscosity|      1.92e-05|        11.424|   N.s/m^2|   1.68067e-06|
+------------------------------------------------------------------------------+
|        Prandtl (Lam.)|             -|             -|         -|          0.72|
|       Prandtl (Turb.)|             -|             -|         -|           0.9|
+------------------------------------------------------------------------------+
|          Bulk Modulus|        142000|             1|        Pa|        142000|
+------------------------------------------------------------------------------+
-- Initial and free-stream conditions:
+------------------------------------------------------------------------------+
|                  Name|    Dim. value|    Ref. value|      Unit|Non-dim. value|
+------------------------------------------------------------------------------+
|      Dynamic Pressure|             0|       108.757|        Pa|             0|
|        Total Pressure|       54.3785|       108.757|        Pa|           0.5|
|               Density|           1.2|           1.2|    kg/m^3|             1|
|            Velocity-X|        9.0541|       9.52003|       m/s|      0.951058|
|            Velocity-Y|        2.9418|       9.52003|       m/s|      0.309012|
|    Velocity Magnitude|       9.52003|       9.52003|       m/s|             1|
+------------------------------------------------------------------------------+
|             Viscosity|      1.92e-05|        11.424|   N.s/m^2|   1.68067e-06|
|          Conductivity|             -|       3.59317|   W/m^2.K|             -|
|     Turb. Kin. Energy|       1.35946|       90.6309|   m^2/s^2|         0.015|
|     Spec. Dissipation|       8496.65|       9.52003|       1/s|       892.503|
+------------------------------------------------------------------------------+
|           Mach Number|             -|             -|         -|     0.0276748|
|       Reynolds Number|             -|             -|         -|        595002|
+------------------------------------------------------------------------------+
Initialize Jacobian structure (Navier-Stokes). MG level: 0.
Initialize Jacobian structure (SST model).

------------------- Numerics Preprocessing ( Zone 0 ) -------------------

----------------- Integration Preprocessing ( Zone 0 ) ------------------

------------------- Iteration Preprocessing ( Zone 0 ) ------------------
Euler/Navier-Stokes/RANS fluid iteration.

------------------------------ Begin Solver -----------------------------

Simulation Run using the Single-zone Driver
+-----------------------------------------------------------------------------+
|  Inner_Iter|     Min CFL|     Max CFL|      rms[P]|  Cauchy[CD]|          CD|
+-----------------------------------------------------------------------------+
|           0|  2.4000e+00|  2.4000e+00|   -4.142191|  1.0000e+00|    0.520533|
|          10|  1.4860e+01|  1.4860e+01|   -4.872303|  2.9208e-03|    1.177626|
|          20|  6.3896e+00|  6.3896e+00|   -5.027151|  2.9963e-03|    1.196445|
|          30|  3.2969e+00|  3.2969e+00|   -4.947702|  3.1130e-03|    1.162107|
|          40|  2.0413e+01|  2.0413e+01|   -4.899015|  3.3001e-03|    1.109182|
|          50|  1.0533e+01|  1.0533e+01|   -4.867681|  3.5063e-03|    1.053685|
|          60|  5.4348e+00|  5.4348e+00|   -4.841583|  3.9234e-03|    0.950109|
|          70|  2.8042e+00|  2.8042e+00|   -4.826619|  4.5212e-03|    0.819424|
|          80|  1.7363e+01|  1.7363e+01|   -4.824369|  4.9394e-03|    0.738602|
|          90|  8.9589e+00|  8.9589e+00|   -4.880274|  5.5510e-03|    0.635064|
|         100|  3.8522e+00|  3.8522e+00|   -4.951787|  6.7015e-03|    0.478943|
|         110|  1.9876e+00|  1.9876e+00|   -4.966926|  7.2965e-03|    0.413355|
|         120|  1.2307e+01|  1.2307e+01|   -4.971783|  7.7829e-03|    0.366367|
|         130|  4.4098e+00|  4.4098e+00|   -4.975449|  8.2934e-03|    0.322928|
|         140|  2.2754e+00|  2.2754e+00|   -4.972822|  8.8907e-03|    0.278554|
|         150|  1.1740e+00|  1.1740e+00|   -4.967193|  9.4469e-03|    0.242687|
|         160|  7.2693e+00|  7.2693e+00|   -4.962295|  9.7243e-03|    0.226493|
|         170|  3.7508e+00|  3.7508e+00|   -4.955356|  1.0172e-02|    0.202709|
|         180|  1.9353e+00|  1.9353e+00|   -4.947793|  1.0700e-02|    0.177828|
|         190|  1.1983e+01|  1.1983e+01|   -4.943391|  1.1091e-02|    0.161374|
|         200|  6.1830e+00|  6.1830e+00|   -4.941919|  1.1479e-02|    0.146581|
+-----------------------------------------------------------------------+
|        File Writing Summary       |              Filename             |
+-----------------------------------------------------------------------+
|SU2 binary restart                 |restart_flow_G5.dat                |
|Paraview                           |flow_G5.vtu                        |
|Paraview surface                   |surface_flow_G5.vtu                |
+-----------------------------------------------------------------------+
+-----------------------------------------------------------------------------+
|  Inner_Iter|     Min CFL|     Max CFL|      rms[P]|  Cauchy[CD]|          CD|
+-----------------------------------------------------------------------------+
|         210|  3.1903e+00|  3.1903e+00|   -4.945397|  1.2055e-02|    0.127121|
|         220|  1.6461e+00|  1.6461e+00|   -4.950726|  1.2708e-02|    0.108163|
|         230|  1.0192e+01|  1.0192e+01|   -4.951667|  1.3189e-02|    0.095863|
|         240|  5.2590e+00|  5.2590e+00|   -4.952453|  1.3857e-02|    0.079149|
|         250|  2.2613e+00|  2.2613e+00|   -4.948517|  1.4915e-02|    0.052719|
|         260|  1.4001e+01|  1.4001e+01|   -4.944588|  1.2757e-02|    0.033642|
|         270|  7.2243e+00|  7.2243e+00|   -4.942969|  1.3252e-02|    0.019386|
|         280|  3.7276e+00|  3.7276e+00|   -4.942876|  1.3812e-02|    0.002445|
|         290|  1.1131e+01|  1.1131e+01|   -4.944730|  1.4664e-02|   -0.023523|
|         300|  3.3236e+00|  3.3236e+00|   -4.947848|  1.5094e-02|   -0.039418|
|         310|  8.2701e+00|  8.2701e+00|   -4.950987|  1.5301e-02|   -0.055023|
|         320|  1.7280e+00|  1.7280e+00|   -4.957544|  1.5095e-02|   -0.064833|
|         330|  6.1917e+00|  6.1917e+00|   -4.961090|  1.4816e-02|   -0.068302|
|         340|  6.1917e+00|  6.1917e+00|   -4.968160|  1.4275e-02|   -0.067938|
|         350|  6.1917e+00|  6.1917e+00|   -4.973533|  1.3432e-02|   -0.060242|
|         360|  6.1917e+00|  6.1917e+00|   -4.975280|  1.3454e-02|   -0.044825|
|         370|  6.1917e+00|  6.1917e+00|   -4.973372|  1.3892e-02|   -0.021711|
|         380|  6.1917e+00|  6.1917e+00|   -4.970194|  1.4596e-02|    0.008661|
|         390|  8.9161e+00|  8.9161e+00|   -4.969972|  1.5703e-02|    0.051277|
|         400|  2.2186e+00|  2.2186e+00|   -4.985710|  1.7781e-02|    0.119730|
+-----------------------------------------------------------------------+
|        File Writing Summary       |              Filename             |
+-----------------------------------------------------------------------+
|SU2 binary restart                 |restart_flow_G5.dat                |
|Paraview                           |flow_G5.vtu                        |
|Paraview surface                   |surface_flow_G5.vtu                |
+-----------------------------------------------------------------------+
+-----------------------------------------------------------------------------+
|  Inner_Iter|     Min CFL|     Max CFL|      rms[P]|  Cauchy[CD]|          CD|
+-----------------------------------------------------------------------------+
|         410|  1.1448e+01|  1.1448e+01|   -4.996648|  1.8738e-02|    0.163930|
|         420|  2.3738e+00|  2.3738e+00|   -5.019329|  1.9655e-02|    0.232431|
|         430|  1.2248e+01|  1.2248e+01|   -5.023803|  1.9857e-02|    0.279569|
|         440|  6.3197e+00|  6.3197e+00|   -5.022632|  1.9960e-02|    0.316668|
|         450|  3.2609e+00|  3.2609e+00|   -5.014074|  2.0117e-02|    0.363362|
|         460|  1.6825e+00|  1.6825e+00|   -5.004143|  1.9940e-02|    0.401720|
|         470|  1.0418e+01|  1.0418e+01|   -4.999904|  1.9481e-02|    0.421803|
|         480|  5.3753e+00|  5.3753e+00|   -4.996832|  1.9152e-02|    0.438134|
|         490|  2.7736e+00|  2.7736e+00|   -4.995744|  1.8629e-02|    0.454402|
|         500|  1.1926e+01|  1.1926e+01|   -4.996018|  1.7652e-02|    0.463668|
|         510|  1.1926e+01|  1.1926e+01|   -4.998774|  1.6969e-02|    0.455980|
|         520|  1.4311e+00|  1.4311e+00|   -5.001586|  1.6666e-02|    0.426602|
|         530|  8.8610e+00|  8.8610e+00|   -5.002303|  1.6121e-02|    0.412762|
|         540|  1.0633e+01|  1.0633e+01|   -5.009652|  1.5568e-02|    0.365816|
|         550|  3.1750e+00|  3.1750e+00|   -5.020439|  1.5408e-02|    0.325095|
|         560|  7.9005e+00|  7.9005e+00|   -5.028178|  1.5201e-02|    0.293047|
|         570|  2.4883e+00|  2.4883e+00|   -5.036302|  1.5138e-02|    0.270057|
|         580|  6.1917e+00|  6.1917e+00|   -5.043388|  1.5353e-02|    0.247294|
|         590|  1.0000e+00|  1.0000e+00|   -5.053249|  1.5720e-02|    0.221823|
|         600|  5.1598e+00|  5.1598e+00|   -5.057102|  1.5582e-02|    0.212610|
+-----------------------------------------------------------------------+
|        File Writing Summary       |              Filename             |
+-----------------------------------------------------------------------+
|SU2 binary restart                 |restart_flow_G5.dat                |
|Paraview                           |flow_G5.vtu                        |
|Paraview surface                   |surface_flow_G5.vtu                |
+-----------------------------------------------------------------------+
+-----------------------------------------------------------------------------+
|  Inner_Iter|     Min CFL|     Max CFL|      rms[P]|  Cauchy[CD]|          CD|
+-----------------------------------------------------------------------------+
|         610|  5.1598e+00|  5.1598e+00|   -5.063961|  1.5289e-02|    0.196129|
|         620|  2.0736e+00|  2.0736e+00|   -5.068671|  1.4565e-02|    0.186598|
|         630|  4.2998e+00|  4.2998e+00|   -5.072222|  1.3522e-02|    0.178736|
|         640|  4.2998e+00|  4.2998e+00|   -5.076373|  1.1972e-02|    0.171972|
|         650|  4.2998e+00|  4.2998e+00|   -5.080292|  9.4381e-03|    0.167738|
|         660|  4.2998e+00|  4.2998e+00|   -5.084127|  8.2475e-03|    0.165938|
|         670|  4.2998e+00|  4.2998e+00|   -5.087879|  6.8982e-03|    0.166424|
|         680|  4.2998e+00|  4.2998e+00|   -5.091298|  6.2290e-03|    0.169000|
|         690|  4.2998e+00|  4.2998e+00|   -5.094266|  5.8398e-03|    0.173441|
|         700|  4.2998e+00|  4.2998e+00|   -5.096449|  5.4318e-03|    0.179485|
|         710|  4.2998e+00|  4.2998e+00|   -5.097387|  5.1934e-03|    0.186855|
|         720|  4.2998e+00|  4.2998e+00|   -5.096815|  5.1744e-03|    0.195256|
|         730|  4.2998e+00|  4.2998e+00|   -5.094758|  5.2053e-03|    0.204381|
|         740|  5.1598e+00|  5.1598e+00|   -5.091204|  5.2670e-03|    0.215273|
|         750|  6.1917e+00|  6.1917e+00|   -5.086756|  5.4028e-03|    0.227277|
|         760|  7.4301e+00|  7.4301e+00|   -5.082361|  5.5649e-03|    0.241500|
|         770|  1.0699e+00|  1.0699e+00|   -5.081306|  5.5484e-03|    0.257184|
|         780|  6.6247e+00|  6.6247e+00|   -5.082380|  5.4810e-03|    0.261392|
|         790|  3.4182e+00|  3.4182e+00|   -5.085806|  5.0846e-03|    0.267320|
|         800|  1.7637e+00|  1.7637e+00|   -5.092152|  4.6878e-03|    0.272666|
+-----------------------------------------------------------------------+
|        File Writing Summary       |              Filename             |
+-----------------------------------------------------------------------+
|SU2 binary restart                 |restart_flow_G5.dat                |
|Paraview                           |flow_G5.vtu                        |
|Paraview surface                   |surface_flow_G5.vtu                |
+-----------------------------------------------------------------------+
+-----------------------------------------------------------------------------+
|  Inner_Iter|     Min CFL|     Max CFL|      rms[P]|  Cauchy[CD]|          CD|
+-----------------------------------------------------------------------------+
|         810|  1.0921e+01|  1.0921e+01|   -5.096983|  4.3074e-03|    0.275210|
|         820|  1.0921e+01|  1.0921e+01|   -5.114461|  4.0044e-03|    0.275749|
|         830|  5.6348e+00|  5.6348e+00|   -5.121738|  3.6663e-03|    0.274662|
|         840|  2.9074e+00|  2.9074e+00|   -5.132038|  3.2665e-03|    0.272111|
|         850|  1.5002e+00|  1.5002e+00|   -5.145197|  3.1579e-03|    0.267960|
|         860|  9.2886e+00|  9.2886e+00|   -5.152057|  2.8784e-03|    0.264994|
|         870|  3.5832e+00|  3.5832e+00|   -5.161833|  2.7275e-03|    0.261769|
|         880|  1.4400e+00|  1.4400e+00|   -5.172341|  2.6159e-03|    0.257812|
|         890|  5.1598e+00|  5.1598e+00|   -5.177625|  2.4996e-03|    0.255361|
|         900|  5.1598e+00|  5.1598e+00|   -5.185642|  2.4504e-03|    0.252150|
|         910|  1.7280e+00|  1.7280e+00|   -5.191116|  2.4382e-03|    0.250205|
|         920|  4.2998e+00|  4.2998e+00|   -5.194287|  2.4423e-03|    0.248956|
|         930|  4.2998e+00|  4.2998e+00|   -5.197887|  2.3959e-03|    0.248026|
|         940|  1.7280e+00|  1.7280e+00|   -5.200370|  2.2959e-03|    0.247801|
|         950|  3.5832e+00|  3.5832e+00|   -5.201996|  2.1620e-03|    0.247979|
|         960|  3.5832e+00|  3.5832e+00|   -5.203885|  2.0120e-03|    0.248640|
|         970|  3.5832e+00|  3.5832e+00|   -5.205676|  1.8544e-03|    0.249757|
|         980|  3.5832e+00|  3.5832e+00|   -5.207438|  1.6965e-03|    0.251282|
|         990|  3.5832e+00|  3.5832e+00|   -5.209175|  1.5190e-03|    0.253152|
|        1000|  3.5832e+00|  3.5832e+00|   -5.210831|  1.3362e-03|    0.255294|
+-----------------------------------------------------------------------+
|        File Writing Summary       |              Filename             |
+-----------------------------------------------------------------------+
|SU2 binary restart                 |restart_flow_G5.dat                |
|Paraview                           |flow_G5.vtu                        |
|Paraview surface                   |surface_flow_G5.vtu                |
+-----------------------------------------------------------------------+
+-----------------------------------------------------------------------------+
|  Inner_Iter|     Min CFL|     Max CFL|      rms[P]|  Cauchy[CD]|          CD|
+-----------------------------------------------------------------------------+
|        1010|  3.5832e+00|  3.5832e+00|   -5.212313|  1.1305e-03|    0.257621|
|        1020|  3.5832e+00|  3.5832e+00|   -5.213519|  9.1694e-04|    0.260042|
|        1030|  3.5832e+00|  3.5832e+00|   -5.214366|  8.8908e-04|    0.262459|
|        1040|  3.5832e+00|  3.5832e+00|   -5.214820|  8.3466e-04|    0.264775|
|        1050|  3.5832e+00|  3.5832e+00|   -5.214921|  7.8738e-04|    0.266891|
|        1060|  3.5832e+00|  3.5832e+00|   -5.214780|  7.7746e-04|    0.268713|
|        1070|  3.5832e+00|  3.5832e+00|   -5.214568|  7.7306e-04|    0.270151|
|        1080|  3.5832e+00|  3.5832e+00|   -5.214492|  7.7163e-04|    0.271124|
|        1090|  4.2998e+00|  4.2998e+00|   -5.214835|  7.4081e-04|    0.271567|
|        1100|  4.2998e+00|  4.2998e+00|   -5.215988|  6.8483e-04|    0.271196|
|        1110|  5.1598e+00|  5.1598e+00|   -5.218294|  6.6193e-04|    0.269732|
|        1120|  6.1917e+00|  6.1917e+00|   -5.222836|  6.6302e-04|    0.266377|
|        1130|  8.9161e+00|  8.9161e+00|   -5.231551|  7.1102e-04|    0.259226|
|        1140|  3.8338e+00|  3.8338e+00|   -5.238638|  7.5264e-04|    0.254112|
|        1150|  1.9781e+00|  1.9781e+00|   -5.247304|  8.2104e-04|    0.246676|
|        1160|  1.2248e+01|  1.2248e+01|   -5.254251|  9.1928e-04|    0.238850|
|        1170|  6.3197e+00|  6.3197e+00|   -5.261597|  1.0013e-03|    0.232844|
|        1180|  3.2609e+00|  3.2609e+00|   -5.269791|  1.1122e-03|    0.225650|
|        1190|  1.6825e+00|  1.6825e+00|   -5.279951|  1.2678e-03|    0.216865|
|        1200|  1.0418e+01|  1.0418e+01|   -5.286475|  1.3835e-03|    0.210545|
+-----------------------------------------------------------------------+
|        File Writing Summary       |              Filename             |
+-----------------------------------------------------------------------+
|SU2 binary restart                 |restart_flow_G5.dat                |
|Paraview                           |flow_G5.vtu                        |
|Paraview surface                   |surface_flow_G5.vtu                |
+-----------------------------------------------------------------------+
+-----------------------------------------------------------------------------+
|  Inner_Iter|     Min CFL|     Max CFL|      rms[P]|  Cauchy[CD]|          CD|
+-----------------------------------------------------------------------------+
|        1210|  5.3753e+00|  5.3753e+00|   -5.293291|  1.4541e-03|    0.206318|
|        1220|  1.4400e+00|  1.4400e+00|   -5.307614|  1.5819e-03|    0.198954|
|        1230|  7.4301e+00|  7.4301e+00|   -5.313948|  1.6180e-03|    0.195970|
|        1240|  2.9860e+00|  2.9860e+00|   -5.323548|  1.6334e-03|    0.193778|
|        1250|  5.1598e+00|  5.1598e+00|   -5.333184|  1.6258e-03|    0.192519|
|        1260|  2.4883e+00|  2.4883e+00|   -5.341203|  1.5933e-03|    0.192536|
|        1270|  1.0000e+00|  1.0000e+00|   -5.349265|  1.5763e-03|    0.193518|
|        1280|  3.5832e+00|  3.5832e+00|   -5.354439|  1.5615e-03|    0.194596|
|        1290|  3.5832e+00|  3.5832e+00|   -5.361829|  1.5737e-03|    0.196913|
|        1300|  3.5832e+00|  3.5832e+00|   -5.368688|  1.6038e-03|    0.199987|
|        1310|  3.5832e+00|  3.5832e+00|   -5.374765|  1.6508e-03|    0.203739|
|        1320|  3.5832e+00|  3.5832e+00|   -5.379802|  1.7137e-03|    0.208077|
|        1330|  1.7280e+00|  1.7280e+00|   -5.383115|  1.7721e-03|    0.211905|
|        1340|  2.4883e+00|  2.4883e+00|   -5.384621|  1.8192e-03|    0.214763|
|        1350|  3.5832e+00|  3.5832e+00|   -5.385741|  1.8729e-03|    0.217974|
|        1360|  1.2000e+00|  1.2000e+00|   -5.386380|  1.9089e-03|    0.221144|
|        1370|  1.7280e+00|  1.7280e+00|   -5.386423|  1.9115e-03|    0.224075|
|        1380|  2.4883e+00|  2.4883e+00|   -5.386039|  1.8581e-03|    0.227219|
|        1390|  3.5832e+00|  3.5832e+00|   -5.385171|  1.8380e-03|    0.230636|
|        1400|  1.2000e+00|  1.2000e+00|   -5.383738|  1.7752e-03|    0.233904|
+-----------------------------------------------------------------------+
|        File Writing Summary       |              Filename             |
+-----------------------------------------------------------------------+
|SU2 binary restart                 |restart_flow_G5.dat                |
|Paraview                           |flow_G5.vtu                        |
|Paraview surface                   |surface_flow_G5.vtu                |
+-----------------------------------------------------------------------+
+-----------------------------------------------------------------------------+
|  Inner_Iter|     Min CFL|     Max CFL|      rms[P]|  Cauchy[CD]|          CD|
+-----------------------------------------------------------------------------+
|        1410|  1.7280e+00|  1.7280e+00|   -5.382234|  1.6958e-03|    0.236843|
|        1420|  2.4883e+00|  2.4883e+00|   -5.380384|  1.6452e-03|    0.239910|
|        1430|  3.5832e+00|  3.5832e+00|   -5.378164|  1.5730e-03|    0.243151|
|        1440|  1.2000e+00|  1.2000e+00|   -5.375543|  1.4629e-03|    0.246161|
|        1450|  1.7280e+00|  1.7280e+00|   -5.373321|  1.3869e-03|    0.248794|
|        1460|  2.4883e+00|  2.4883e+00|   -5.370954|  1.3484e-03|    0.251468|
|        1470|  3.5832e+00|  3.5832e+00|   -5.368453|  1.2460e-03|    0.254208|
|        1480|  1.2000e+00|  1.2000e+00|   -5.365834|  1.2241e-03|    0.256673|
|        1490|  1.7280e+00|  1.7280e+00|   -5.363839|  1.2114e-03|    0.258763|
|        1500|  2.4883e+00|  2.4883e+00|   -5.361908|  1.2170e-03|    0.260817|
|        1510|  3.5832e+00|  3.5832e+00|   -5.360074|  1.2442e-03|    0.262844|
|        1520|  1.2000e+00|  1.2000e+00|   -5.358388|  1.2503e-03|    0.264593|
|        1530|  1.7280e+00|  1.7280e+00|   -5.357281|  1.2496e-03|    0.266014|
|        1540|  2.4883e+00|  2.4883e+00|   -5.356384|  1.2222e-03|    0.267348|
|        1550|  3.5832e+00|  3.5832e+00|   -5.355744|  1.1789e-03|    0.268590|
|        1560|  1.2000e+00|  1.2000e+00|   -5.355438|  1.1195e-03|    0.269592|
|        1570|  1.7280e+00|  1.7280e+00|   -5.355485|  1.0465e-03|    0.270348|
|        1580|  2.4883e+00|  2.4883e+00|   -5.355819|  9.8320e-04|    0.270995|
|        1590|  3.5832e+00|  3.5832e+00|   -5.356497|  9.3751e-04|    0.271528|
|        1600|  1.2000e+00|  1.2000e+00|   -5.357621|  8.8350e-04|    0.271888|
+-----------------------------------------------------------------------+
|        File Writing Summary       |              Filename             |
+-----------------------------------------------------------------------+
|SU2 binary restart                 |restart_flow_G5.dat                |
|Paraview                           |flow_G5.vtu                        |
|Paraview surface                   |surface_flow_G5.vtu                |
+-----------------------------------------------------------------------+
+-----------------------------------------------------------------------------+
|  Inner_Iter|     Min CFL|     Max CFL|      rms[P]|  Cauchy[CD]|          CD|
+-----------------------------------------------------------------------------+
|        1610|  1.7280e+00|  1.7280e+00|   -5.358811|  8.2892e-04|    0.272101|
|        1620|  2.4883e+00|  2.4883e+00|   -5.360323|  7.7802e-04|    0.272218|
|        1630|  3.5832e+00|  3.5832e+00|   -5.362235|  7.2276e-04|    0.272237|
|        1640|  1.2000e+00|  1.2000e+00|   -5.364678|  6.6411e-04|    0.272168|
|        1650|  3.5832e+00|  3.5832e+00|   -5.367562|  6.1051e-04|    0.271989|
|        1660|  3.5832e+00|  3.5832e+00|   -5.372701|  5.6575e-04|    0.271639|
|        1670|  4.2998e+00|  4.2998e+00|   -5.379678|  5.2096e-04|    0.271188|
|        1680|  6.1917e+00|  6.1917e+00|   -5.390012|  4.7385e-04|    0.270747|
|        1690|  8.9161e+00|  8.9161e+00|   -5.409072|  4.2822e-04|    0.270749|
|        1700|  4.6005e+00|  4.6005e+00|   -5.422767|  3.9136e-04|    0.271134|
|        1710|  2.3738e+00|  2.3738e+00|   -5.442946|  3.6367e-04|    0.272156|
|        1720|  1.2248e+00|  1.2248e+00|   -5.465310|  3.4832e-04|    0.274067|
|        1730|  7.5837e+00|  7.5837e+00|   -5.483797|  3.2752e-04|    0.275288|
|        1740|  3.9130e+00|  3.9130e+00|   -5.514517|  3.2853e-04|    0.277600|
|        1750|  1.6825e+00|  1.6825e+00|   -5.553007|  3.3785e-04|    0.280457|
|        1760|  8.6815e+00|  8.6815e+00|   -5.573671|  3.3158e-04|    0.282194|
|        1770|  2.4883e+00|  2.4883e+00|   -5.604127|  3.2707e-04|    0.283751|
|        1780|  1.0000e+00|  1.0000e+00|   -5.623427|  3.1725e-04|    0.284576|
|        1790|  5.1598e+00|  5.1598e+00|   -5.632200|  2.9866e-04|    0.284670|
|        1800|  3.5832e+00|  3.5832e+00|   -5.639283|  2.8307e-04|    0.284459|
+-----------------------------------------------------------------------+
|        File Writing Summary       |              Filename             |
+-----------------------------------------------------------------------+
|SU2 binary restart                 |restart_flow_G5.dat                |
|Paraview                           |flow_G5.vtu                        |
|Paraview surface                   |surface_flow_G5.vtu                |
+-----------------------------------------------------------------------+
+-----------------------------------------------------------------------------+
|  Inner_Iter|     Min CFL|     Max CFL|      rms[P]|  Cauchy[CD]|          CD|
+-----------------------------------------------------------------------------+
|        1810|  4.2998e+00|  4.2998e+00|   -5.644400|  2.8224e-04|    0.283462|
|        1820|  4.2998e+00|  4.2998e+00|   -5.644870|  2.8514e-04|    0.282465|
|        1830|  3.5832e+00|  3.5832e+00|   -5.643573|  2.9366e-04|    0.281190|
|        1840|  3.5832e+00|  3.5832e+00|   -5.639162|  3.2064e-04|    0.278753|
|        1850|  3.5832e+00|  3.5832e+00|   -5.632404|  3.6012e-04|    0.275651|
|        1860|  1.2000e+00|  1.2000e+00|   -5.624104|  4.0752e-04|    0.272194|
|        1870|  1.7280e+00|  1.7280e+00|   -5.619360|  4.3868e-04|    0.269967|
|        1880|  2.4883e+00|  2.4883e+00|   -5.614225|  4.7622e-04|    0.267418|
|        1890|  3.5832e+00|  3.5832e+00|   -5.608669|  5.1981e-04|    0.264454|
|        1900|  1.2000e+00|  1.2000e+00|   -5.602631|  5.6331e-04|    0.261423|
|        1910|  1.7280e+00|  1.7280e+00|   -5.597840|  6.0276e-04|    0.258527|
|        1920|  2.4883e+00|  2.4883e+00|   -5.592944|  6.4616e-04|    0.255315|
|        1930|  3.5832e+00|  3.5832e+00|   -5.587911|  6.9681e-04|    0.251695|
|        1940|  1.2000e+00|  1.2000e+00|   -5.582706|  7.5086e-04|    0.248101|
|        1950|  1.7280e+00|  1.7280e+00|   -5.578754|  7.9959e-04|    0.244751|
|        1960|  2.4883e+00|  2.4883e+00|   -5.574865|  8.4430e-04|    0.241125|
|        1970|  3.5832e+00|  3.5832e+00|   -5.571030|  8.8312e-04|    0.237136|
|        1980|  3.5832e+00|  3.5832e+00|   -5.567252|  9.3936e-04|    0.232793|
|        1990|  4.2998e+00|  4.2998e+00|   -5.562223|  1.0282e-03|    0.225797|
|        2000|  2.2186e+00|  2.2186e+00|   -5.557369|  1.1849e-03|    0.214947|
+-----------------------------------------------------------------------+
|        File Writing Summary       |              Filename             |
+-----------------------------------------------------------------------+
|SU2 binary restart                 |restart_flow_G5.dat                |
|Paraview                           |flow_G5.vtu                        |
|Paraview surface                   |surface_flow_G5.vtu                |
+-----------------------------------------------------------------------+
+-----------------------------------------------------------------------------+
|  Inner_Iter|     Min CFL|     Max CFL|      rms[P]|  Cauchy[CD]|          CD|
+-----------------------------------------------------------------------------+
|        2010|  1.4400e+00|  1.4400e+00|   -5.556266|  1.2865e-03|    0.208279|
|        2020|  4.2998e+00|  4.2998e+00|   -5.556512|  1.3646e-03|    0.203139|
|        2030|  3.5832e+00|  3.5832e+00|   -5.557700|  1.4324e-03|    0.199152|
|        2040|  3.5832e+00|  3.5832e+00|   -5.560715|  1.5356e-03|    0.194016|
|        2050|  3.5832e+00|  3.5832e+00|   -5.565624|  1.6292e-03|    0.189398|
|        2060|  3.5832e+00|  3.5832e+00|   -5.570159|  1.6753e-03|    0.186572|
|        2070|  4.2998e+00|  4.2998e+00|   -5.579768|  1.7532e-03|    0.182333|
|        2080|  7.4301e+00|  7.4301e+00|   -5.595756|  1.8274e-03|    0.178182|
|        2090|  1.5407e+00|  1.5407e+00|   -5.633320|  1.8771e-03|    0.174457|
|        2100|  9.5396e+00|  9.5396e+00|   -5.648548|  1.8472e-03|    0.173812|
|        2110|  4.9222e+00|  4.9222e+00|   -5.675405|  1.8029e-03|    0.173981|
|        2120|  2.1165e+00|  2.1165e+00|   -5.717498|  1.8360e-03|    0.176879|
|        2130|  1.0921e+01|  1.0921e+01|   -5.729945|  1.8603e-03|    0.179656|
|        2140|  5.6348e+00|  5.6348e+00|   -5.736540|  1.8609e-03|    0.181700|
|        2150|  1.0000e+00|  1.0000e+00|   -5.738541|  1.9003e-03|    0.185632|
|        2160|  5.1598e+00|  5.1598e+00|   -5.736805|  1.8983e-03|    0.187618|
|        2170|  5.1598e+00|  5.1598e+00|   -5.729930|  1.9374e-03|    0.191850|
|        2180|  6.1917e+00|  6.1917e+00|   -5.719421|  1.9778e-03|    0.196597|
|        2190|  2.6623e+00|  2.6623e+00|   -5.700567|  2.0732e-03|    0.204278|
|        2200|  1.4400e+00|  1.4400e+00|   -5.689338|  2.1068e-03|    0.208831|
+-----------------------------------------------------------------------+
|        File Writing Summary       |              Filename             |
+-----------------------------------------------------------------------+
|SU2 binary restart                 |restart_flow_G5.dat                |
|Paraview                           |flow_G5.vtu                        |
|Paraview surface                   |surface_flow_G5.vtu                |
+-----------------------------------------------------------------------+
+-----------------------------------------------------------------------------+
|  Inner_Iter|     Min CFL|     Max CFL|      rms[P]|  Cauchy[CD]|          CD|
+-----------------------------------------------------------------------------+
|        2210|  1.4400e+00|  1.4400e+00|   -5.683114|  2.0974e-03|    0.211478|
|        2220|  3.5832e+00|  3.5832e+00|   -5.676770|  2.0886e-03|    0.214568|
|        2230|  1.4400e+00|  1.4400e+00|   -5.669090|  2.0776e-03|    0.217980|
|        2240|  2.0736e+00|  2.0736e+00|   -5.664788|  1.9957e-03|    0.220193|
|        2250|  2.9860e+00|  2.9860e+00|   -5.660377|  1.8415e-03|    0.222597|
|        2260|  1.0000e+00|  1.0000e+00|   -5.655791|  1.7628e-03|    0.225266|
|        2270|  1.4400e+00|  1.4400e+00|   -5.651572|  1.7014e-03|    0.227456|
|        2280|  2.0736e+00|  2.0736e+00|   -5.647882|  1.6627e-03|    0.229782|
|        2290|  2.9860e+00|  2.9860e+00|   -5.644133|  1.6015e-03|    0.232295|
|        2300|  1.0000e+00|  1.0000e+00|   -5.640273|  1.5525e-03|    0.235068|
|        2310|  1.4400e+00|  1.4400e+00|   -5.636761|  1.5305e-03|    0.237327|
|        2320|  2.0736e+00|  2.0736e+00|   -5.633731|  1.4784e-03|    0.239709|
|        2330|  2.9860e+00|  2.9860e+00|   -5.630703|  1.4285e-03|    0.242259|
|        2340|  1.0000e+00|  1.0000e+00|   -5.627662|  1.3896e-03|    0.245044|
|        2350|  1.4400e+00|  1.4400e+00|   -5.624987|  1.4112e-03|    0.247289|
|        2360|  2.0736e+00|  2.0736e+00|   -5.622772|  1.4426e-03|    0.249631|
|        2370|  2.9860e+00|  2.9860e+00|   -5.620679|  1.4161e-03|    0.252110|
|        2380|  1.0000e+00|  1.0000e+00|   -5.618746|  1.3960e-03|    0.254779|
|        2390|  1.4400e+00|  1.4400e+00|   -5.617244|  1.3839e-03|    0.256900|
|        2400|  2.0736e+00|  2.0736e+00|   -5.616198|  1.3322e-03|    0.259082|
+-----------------------------------------------------------------------+
|        File Writing Summary       |              Filename             |
+-----------------------------------------------------------------------+
|SU2 binary restart                 |restart_flow_G5.dat                |
|Paraview                           |flow_G5.vtu                        |
|Paraview surface                   |surface_flow_G5.vtu                |
+-----------------------------------------------------------------------+
+-----------------------------------------------------------------------------+
|  Inner_Iter|     Min CFL|     Max CFL|      rms[P]|  Cauchy[CD]|          CD|
+-----------------------------------------------------------------------------+
|        2410|  2.9860e+00|  2.9860e+00|   -5.615462|  1.3246e-03|    0.261354|
|        2420|  1.0000e+00|  1.0000e+00|   -5.615146|  1.2720e-03|    0.263754|
|        2430|  1.4400e+00|  1.4400e+00|   -5.615346|  1.2026e-03|    0.265626|
|        2440|  2.0736e+00|  2.0736e+00|   -5.615978|  1.0780e-03|    0.267515|
|        2450|  2.9860e+00|  2.9860e+00|   -5.617163|  1.0186e-03|    0.269438|
|        2460|  3.5832e+00|  3.5832e+00|   -5.619154|  9.9758e-04|    0.271419|
|        2470|  3.5832e+00|  3.5832e+00|   -5.621956|  9.6726e-04|    0.273303|
|        2480|  3.5832e+00|  3.5832e+00|   -5.628004|  9.4128e-04|    0.275849|
|        2490|  3.5832e+00|  3.5832e+00|   -5.636164|  9.3202e-04|    0.278005|
|        2500|  3.5832e+00|  3.5832e+00|   -5.646548|  9.1366e-04|    0.279751|
|        2510|  2.0736e+00|  2.0736e+00|   -5.656782|  8.8110e-04|    0.280809|
|        2520|  2.4883e+00|  2.4883e+00|   -5.665638|  8.5221e-04|    0.281496|
|        2530|  2.9860e+00|  2.9860e+00|   -5.675557|  8.1892e-04|    0.282017|
|        2540|  3.5832e+00|  3.5832e+00|   -5.686592|  7.8035e-04|    0.282363|
|        2550|  4.2998e+00|  4.2998e+00|   -5.698797|  7.3521e-04|    0.282526|
|        2560|  4.2998e+00|  4.2998e+00|   -5.722710|  6.9980e-04|    0.282347|
|        2570|  2.0736e+00|  2.0736e+00|   -5.743951|  6.6687e-04|    0.281854|
|        2580|  6.1917e+00|  6.1917e+00|   -5.768344|  6.3958e-04|    0.280799|
|        2590|  1.8488e+00|  1.8488e+00|   -5.830135|  6.4827e-04|    0.277010|
|        2600|  7.9497e+00|  7.9497e+00|   -5.852431|  6.4799e-04|    0.274517|
+-----------------------------------------------------------------------+
|        File Writing Summary       |              Filename             |
+-----------------------------------------------------------------------+
|SU2 binary restart                 |restart_flow_G5.dat                |
|Paraview                           |flow_G5.vtu                        |
|Paraview surface                   |surface_flow_G5.vtu                |
+-----------------------------------------------------------------------+
+-----------------------------------------------------------------------------+
|  Inner_Iter|     Min CFL|     Max CFL|      rms[P]|  Cauchy[CD]|          CD|
+-----------------------------------------------------------------------------+
|        2610|  9.5396e+00|  9.5396e+00|   -5.882904|  6.8346e-04|    0.269547|
|        2620|  1.6484e+00|  1.6484e+00|   -5.885134|  7.4268e-04|    0.262985|
|        2630|  1.0207e+01|  1.0207e+01|   -5.876225|  7.4446e-04|    0.260118|
|        2640|  2.5398e+00|  2.5398e+00|   -5.829579|  8.3034e-04|    0.252505|
|        2650|  1.5726e+01|  1.5726e+01|   -5.805334|  8.6146e-04|    0.248443|
|        2660|  8.1140e+00|  8.1140e+00|   -5.782884|  8.7349e-04|    0.245547|
|        2670|  4.1867e+00|  4.1867e+00|   -5.756738|  9.0761e-04|    0.241253|
|        2680|  1.5002e+01|  1.5002e+01|   -5.736381|  9.7849e-04|    0.235355|
|        2690|  1.5002e+01|  1.5002e+01|   -5.733222|  1.1157e-03|    0.225836|
|        2700|  4.4794e+00|  4.4794e+00|   -5.755024|  1.1996e-03|    0.219579|
|        2710|  2.3113e+00|  2.3113e+00|   -5.783665|  1.2712e-03|    0.214119|
|        2720|  1.4311e+01|  1.4311e+01|   -5.805931|  1.3230e-03|    0.209914|
|        2730|  7.3841e+00|  7.3841e+00|   -5.839066|  1.3634e-03|    0.205893|
|        2740|  3.8101e+00|  3.8101e+00|   -5.874613|  1.4124e-03|    0.201816|
|        2750|  1.4400e+00|  1.4400e+00|   -5.902225|  1.4501e-03|    0.198682|
|        2760|  6.1917e+00|  6.1917e+00|   -5.913767|  1.4679e-03|    0.197052|
|        2770|  3.5832e+00|  3.5832e+00|   -5.924217|  1.4826e-03|    0.195851|
|        2780|  1.4400e+00|  1.4400e+00|   -5.933056|  1.5003e-03|    0.194628|
|        2790|  1.4400e+00|  1.4400e+00|   -5.936173|  1.5069e-03|    0.194067|
|        2800|  1.4400e+00|  1.4400e+00|   -5.937745|  1.5125e-03|    0.193688|
+-----------------------------------------------------------------------+
|        File Writing Summary       |              Filename             |
+-----------------------------------------------------------------------+
|SU2 binary restart                 |restart_flow_G5.dat                |
|Paraview                           |flow_G5.vtu                        |
|Paraview surface                   |surface_flow_G5.vtu                |
+-----------------------------------------------------------------------+
+-----------------------------------------------------------------------------+
|  Inner_Iter|     Min CFL|     Max CFL|      rms[P]|  Cauchy[CD]|          CD|
+-----------------------------------------------------------------------------+
|        2810|  4.2998e+00|  4.2998e+00|   -5.937875|  1.5139e-03|    0.193483|
|        2820|  4.2998e+00|  4.2998e+00|   -5.935573|  1.5112e-03|    0.193681|
|        2830|  4.2998e+00|  4.2998e+00|   -5.931002|  1.5119e-03|    0.194445|
|        2840|  4.2998e+00|  4.2998e+00|   -5.927496|  1.4721e-03|    0.195154|
|        2850|  3.5832e+00|  3.5832e+00|   -5.923584|  1.4550e-03|    0.196089|
|        2860|  2.9860e+00|  2.9860e+00|   -5.919417|  1.4057e-03|    0.197261|
|        2870|  2.9860e+00|  2.9860e+00|   -5.915461|  1.3335e-03|    0.198573|
|        2880|  2.4883e+00|  2.4883e+00|   -5.911200|  1.3220e-03|    0.200190|
|        2890|  1.7280e+00|  1.7280e+00|   -5.906563|  1.2436e-03|    0.202234|
|        2900|  4.2998e+00|  4.2998e+00|   -5.901955|  1.2307e-03|    0.204885|
|        2910|  5.1598e+00|  5.1598e+00|   -5.896065|  1.2561e-03|    0.208625|
|        2920|  1.5407e+01|  1.5407e+01|   -5.888375|  1.3200e-03|    0.215780|
|        2930|  6.6247e+00|  6.6247e+00|   -5.881969|  1.3333e-03|    0.221946|
|        2940|  4.2998e+00|  4.2998e+00|   -5.878796|  1.2283e-03|    0.225330|
|        2950|  4.2998e+00|  4.2998e+00|   -5.876387|  1.1685e-03|    0.228326|
|        2960|  2.9860e+00|  2.9860e+00|   -5.874094|  1.1224e-03|    0.231480|
|        2970|  3.5832e+00|  3.5832e+00|   -5.872472|  1.0904e-03|    0.234243|
|        2980|  4.2998e+00|  4.2998e+00|   -5.871147|  1.0606e-03|    0.237056|
|        2990|  1.0000e+00|  1.0000e+00|   -5.870192|  1.0283e-03|    0.239912|
|        3000|  1.2000e+00|  1.2000e+00|   -5.869696|  1.0060e-03|    0.242346|
+-----------------------------------------------------------------------+
|        File Writing Summary       |              Filename             |
+-----------------------------------------------------------------------+
|SU2 binary restart                 |restart_flow_G5.dat                |
|Paraview                           |flow_G5.vtu                        |
|Paraview surface                   |surface_flow_G5.vtu                |
+-----------------------------------------------------------------------+
+-----------------------------------------------------------------------------+
|  Inner_Iter|     Min CFL|     Max CFL|      rms[P]|  Cauchy[CD]|          CD|
+-----------------------------------------------------------------------------+
|        3010|  1.4400e+00|  1.4400e+00|   -5.869697|  1.0125e-03|    0.244746|
|        3020|  1.7280e+00|  1.7280e+00|   -5.870154|  1.0263e-03|    0.247103|
|        3030|  2.0736e+00|  2.0736e+00|   -5.871117|  1.0383e-03|    0.249408|
|        3040|  2.4883e+00|  2.4883e+00|   -5.872642|  1.0626e-03|    0.251649|
|        3050|  2.9860e+00|  2.9860e+00|   -5.874785|  1.0890e-03|    0.253816|
|        3060|  3.5832e+00|  3.5832e+00|   -5.877609|  1.1174e-03|    0.255897|
|        3070|  4.2998e+00|  4.2998e+00|   -5.881182|  1.1440e-03|    0.257880|
|        3080|  1.0000e+00|  1.0000e+00|   -5.885581|  1.1571e-03|    0.259748|
|        3090|  1.2000e+00|  1.2000e+00|   -5.890892|  1.1652e-03|    0.261222|
|        3100|  1.4400e+00|  1.4400e+00|   -5.896123|  1.1665e-03|    0.262562|
|        3110|  1.7280e+00|  1.7280e+00|   -5.901980|  1.1609e-03|    0.263759|
|        3120|  4.2998e+00|  4.2998e+00|   -5.911372|  1.1574e-03|    0.265283|
|        3130|  5.1598e+00|  5.1598e+00|   -5.925886|  1.1451e-03|    0.266623|
|        3140|  5.1598e+00|  5.1598e+00|   -5.935381|  1.1121e-03|    0.267131|
|        3150|  1.8488e+00|  1.8488e+00|   -5.973003|  1.0756e-03|    0.266698|
|        3160|  7.9497e+00|  7.9497e+00|   -5.995978|  1.0219e-03|    0.265462|
|        3170|  5.1598e+00|  5.1598e+00|   -6.007934|  9.0324e-04|    0.264406|
|        3180|  2.9860e+00|  2.9860e+00|   -6.018734|  8.1121e-04|    0.263062|
|        3190|  2.9860e+00|  2.9860e+00|   -6.026325|  7.7058e-04|    0.261762|
|        3200|  2.9860e+00|  2.9860e+00|   -6.032839|  7.3972e-04|    0.260331|
+-----------------------------------------------------------------------+
|        File Writing Summary       |              Filename             |
+-----------------------------------------------------------------------+
|SU2 binary restart                 |restart_flow_G5.dat                |
|Paraview                           |flow_G5.vtu                        |
|Paraview surface                   |surface_flow_G5.vtu                |
+-----------------------------------------------------------------------+
+-----------------------------------------------------------------------------+
|  Inner_Iter|     Min CFL|     Max CFL|      rms[P]|  Cauchy[CD]|          CD|
+-----------------------------------------------------------------------------+
|        3210|  2.9860e+00|  2.9860e+00|   -6.038160|  7.0875e-04|    0.258784|
|        3220|  2.9860e+00|  2.9860e+00|   -6.042208|  6.8684e-04|    0.257139|
|        3230|  2.9860e+00|  2.9860e+00|   -6.044939|  6.6607e-04|    0.255413|
|        3240|  2.4883e+00|  2.4883e+00|   -6.046469|  6.4929e-04|    0.253437|
|        3250|  2.4883e+00|  2.4883e+00|   -6.046479|  6.3804e-04|    0.251601|
|        3260|  2.4883e+00|  2.4883e+00|   -6.045304|  6.2835e-04|    0.249740|
|        3270|  2.4883e+00|  2.4883e+00|   -6.043042|  6.2007e-04|    0.247872|
|        3280|  2.4883e+00|  2.4883e+00|   -6.039810|  6.1304e-04|    0.246016|
|        3290|  5.1598e+00|  5.1598e+00|   -6.033092|  6.2799e-04|    0.242919|
|        3300|  1.5407e+01|  1.5407e+01|   -6.015766|  6.9339e-04|    0.236948|
|        3310|  7.9497e+00|  7.9497e+00|   -6.002805|  7.0446e-04|    0.234375|
|        3320|  3.5832e+00|  3.5832e+00|   -5.993368|  7.0383e-04|    0.232611|
|        3330|  5.1598e+00|  5.1598e+00|   -5.983007|  7.0984e-04|    0.230593|
|        3340|  5.1598e+00|  5.1598e+00|   -5.973136|  7.1672e-04|    0.228899|
|        3350|  5.1598e+00|  5.1598e+00|   -5.965439|  7.1882e-04|    0.227612|
|        3360|  5.1598e+00|  5.1598e+00|   -5.960424|  7.1666e-04|    0.226702|
|        3370|  5.1598e+00|  5.1598e+00|   -5.958487|  7.0391e-04|    0.226120|
|        3380|  6.1917e+00|  6.1917e+00|   -5.960217|  6.8978e-04|    0.225779|
|        3390|  6.1917e+00|  6.1917e+00|   -5.967084|  6.8442e-04|    0.225653|
|        3400|  6.1917e+00|  6.1917e+00|   -5.979228|  6.6919e-04|    0.225655|
+-----------------------------------------------------------------------+
|        File Writing Summary       |              Filename             |
+-----------------------------------------------------------------------+
|SU2 binary restart                 |restart_flow_G5.dat                |
|Paraview                           |flow_G5.vtu                        |
|Paraview surface                   |surface_flow_G5.vtu                |
+-----------------------------------------------------------------------+
+-----------------------------------------------------------------------------+
|  Inner_Iter|     Min CFL|     Max CFL|      rms[P]|  Cauchy[CD]|          CD|
+-----------------------------------------------------------------------------+
|        3410|  2.0736e+00|  2.0736e+00|   -5.991895|  6.5082e-04|    0.225667|
|        3420|  5.1598e+00|  5.1598e+00|   -6.004053|  6.3519e-04|    0.225649|
|        3430|  5.1598e+00|  5.1598e+00|   -6.023422|  6.1667e-04|    0.225544|
|        3440|  1.4400e+00|  1.4400e+00|   -6.043526|  6.0021e-04|    0.225354|
|        3450|  1.4400e+00|  1.4400e+00|   -6.055153|  5.8117e-04|    0.225191|
|        3460|  1.4400e+00|  1.4400e+00|   -6.067092|  5.6097e-04|    0.224985|
|        3470|  1.4400e+00|  1.4400e+00|   -6.079177|  5.3987e-04|    0.224737|
|        3480|  5.1598e+00|  5.1598e+00|   -6.093134|  5.1991e-04|    0.224345|
|        3490|  6.1917e+00|  6.1917e+00|   -6.116436|  5.0246e-04|    0.223582|
|        3500|  2.6623e+00|  2.6623e+00|   -6.149703|  5.0290e-04|    0.221938|
|        3510|  1.3737e+01|  1.3737e+01|   -6.159672|  4.9845e-04|    0.220541|
|        3520|  7.0880e+00|  7.0880e+00|   -6.161656|  4.8408e-04|    0.219679|
|        3530|  2.9860e+00|  2.9860e+00|   -6.158153|  4.6921e-04|    0.218845|
|        3540|  6.1917e+00|  6.1917e+00|   -6.149995|  4.3586e-04|    0.217898|
|        3550|  6.1917e+00|  6.1917e+00|   -6.136229|  3.5253e-04|    0.217009|
|        3560|  8.9161e+00|  8.9161e+00|   -6.120712|  3.1989e-04|    0.216409|
|        3570|  2.6623e+00|  2.6623e+00|   -6.102474|  2.9377e-04|    0.216316|
|        3580|  1.6484e+01|  1.6484e+01|   -6.094392|  2.6891e-04|    0.216858|
|        3590|  8.5056e+00|  8.5056e+00|   -6.090508|  2.5358e-04|    0.217628|
|        3600|  3.0477e+00|  3.0477e+00|   -6.090537|  2.5016e-04|    0.218672|
+-----------------------------------------------------------------------+
|        File Writing Summary       |              Filename             |
+-----------------------------------------------------------------------+
|SU2 binary restart                 |restart_flow_G5.dat                |
|Paraview                           |flow_G5.vtu                        |
|Paraview surface                   |surface_flow_G5.vtu                |
+-----------------------------------------------------------------------+
+-----------------------------------------------------------------------------+
|  Inner_Iter|     Min CFL|     Max CFL|      rms[P]|  Cauchy[CD]|          CD|
+-----------------------------------------------------------------------------+
|        3610|  1.7280e+00|  1.7280e+00|   -6.092866|  2.5267e-04|    0.219688|
|        3620|  5.1598e+00|  5.1598e+00|   -6.096530|  2.6307e-04|    0.220828|
|        3630|  5.1598e+00|  5.1598e+00|   -6.100544|  2.7263e-04|    0.221691|
|        3640|  5.1598e+00|  5.1598e+00|   -6.105347|  2.8699e-04|    0.222613|
|        3650|  5.1598e+00|  5.1598e+00|   -6.111069|  3.0419e-04|    0.223589|
|        3660|  5.1598e+00|  5.1598e+00|   -6.117699|  3.2226e-04|    0.224614|
|        3670|  5.1598e+00|  5.1598e+00|   -6.125220|  3.4088e-04|    0.225680|
|        3680|  5.1598e+00|  5.1598e+00|   -6.133608|  3.5845e-04|    0.226780|
|        3690|  4.2998e+00|  4.2998e+00|   -6.143435|  3.7556e-04|    0.227944|
|        3700|  5.1598e+00|  5.1598e+00|   -6.163241|  4.1185e-04|    0.230190|
|        3710|  7.4301e+00|  7.4301e+00|   -6.190247|  4.5481e-04|    0.232889|
|        3720|  2.2186e+00|  2.2186e+00|   -6.249804|  5.2600e-04|    0.237338|
|        3730|  1.3737e+01|  1.3737e+01|   -6.273670|  5.5270e-04|    0.239346|
|        3740|  7.0880e+00|  7.0880e+00|   -6.300677|  5.6662e-04|    0.241002|
|        3750|  3.5832e+00|  3.5832e+00|   -6.312091|  5.5048e-04|    0.241811|
|        3760|  5.1598e+00|  5.1598e+00|   -6.320454|  5.4010e-04|    0.242712|
|        3770|  2.9860e+00|  2.9860e+00|   -6.321777|  5.3098e-04|    0.243110|
|        3780|  2.9860e+00|  2.9860e+00|   -6.320111|  5.1965e-04|    0.243346|
|        3790|  2.9860e+00|  2.9860e+00|   -6.316255|  5.0462e-04|    0.243488|
|        3800|  4.2998e+00|  4.2998e+00|   -6.306909|  4.8929e-04|    0.243514|
+-----------------------------------------------------------------------+
|        File Writing Summary       |              Filename             |
+-----------------------------------------------------------------------+
|SU2 binary restart                 |restart_flow_G5.dat                |
|Paraview                           |flow_G5.vtu                        |
|Paraview surface                   |surface_flow_G5.vtu                |
+-----------------------------------------------------------------------+
+-----------------------------------------------------------------------------+
|  Inner_Iter|     Min CFL|     Max CFL|      rms[P]|  Cauchy[CD]|          CD|
+-----------------------------------------------------------------------------+
|        3810|  4.2998e+00|  4.2998e+00|   -6.292906|  4.8200e-04|    0.243283|
|        3820|  4.2998e+00|  4.2998e+00|   -6.276604|  4.8590e-04|    0.242797|
|        3830|  4.2998e+00|  4.2998e+00|   -6.259610|  4.8792e-04|    0.242068|
|        3840|  4.2998e+00|  4.2998e+00|   -6.243282|  4.8953e-04|    0.241115|
|        3850|  4.2998e+00|  4.2998e+00|   -6.228672|  4.8958e-04|    0.239962|
|        3860|  4.2998e+00|  4.2998e+00|   -6.216542|  4.9315e-04|    0.238639|
|        3870|  4.2998e+00|  4.2998e+00|   -6.207414|  4.9700e-04|    0.237180|
|        3880|  4.2998e+00|  4.2998e+00|   -6.201619|  5.0780e-04|    0.235621|
|        3890|  4.2998e+00|  4.2998e+00|   -6.199340|  5.1879e-04|    0.234001|
|        3900|  4.2998e+00|  4.2998e+00|   -6.200635|  5.2945e-04|    0.232360|
|        3910|  5.1598e+00|  5.1598e+00|   -6.205459|  5.3921e-04|    0.230737|
|        3920|  5.1598e+00|  5.1598e+00|   -6.209977|  5.3689e-04|    0.229781|
|        3930|  7.4301e+00|  7.4301e+00|   -6.222902|  5.5082e-04|    0.227873|
|        3940|  2.6623e+00|  2.6623e+00|   -6.251929|  5.7240e-04|    0.225491|
|        3950|  1.3737e+01|  1.3737e+01|   -6.275585|  5.6218e-04|    0.223864|
|        3960|  7.0880e+00|  7.0880e+00|   -6.297095|  5.2913e-04|    0.223107|
|        3970|  3.5832e+00|  3.5832e+00|   -6.313522|  4.6261e-04|    0.222601|
|        3980|  1.4400e+00|  1.4400e+00|   -6.329590|  4.3599e-04|    0.222209|
|        3990|  1.4400e+00|  1.4400e+00|   -6.338219|  4.1128e-04|    0.222050|
|        4000|  4.2998e+00|  4.2998e+00|   -6.346562|  3.9968e-04|    0.221950|
+-----------------------------------------------------------------------+
|        File Writing Summary       |              Filename             |
+-----------------------------------------------------------------------+
|SU2 binary restart                 |restart_flow_G5.dat                |
|Paraview                           |flow_G5.vtu                        |
|Paraview surface                   |surface_flow_G5.vtu                |
+-----------------------------------------------------------------------+
+-----------------------------------------------------------------------------+
|  Inner_Iter|     Min CFL|     Max CFL|      rms[P]|  Cauchy[CD]|          CD|
+-----------------------------------------------------------------------------+
|        4010|  4.2998e+00|  4.2998e+00|   -6.356908|  3.8560e-04|    0.221969|
|        4020|  4.2998e+00|  4.2998e+00|   -6.364432|  3.8225e-04|    0.222146|
|        4030|  4.2998e+00|  4.2998e+00|   -6.369451|  3.8395e-04|    0.222457|
|        4040|  1.7280e+00|  1.7280e+00|   -6.372190|  3.8751e-04|    0.222784|
|        4050|  4.2998e+00|  4.2998e+00|   -6.373570|  3.9322e-04|    0.223160|
|        4060|  2.4883e+00|  2.4883e+00|   -6.374415|  3.9558e-04|    0.223503|
|        4070|  4.2998e+00|  4.2998e+00|   -6.374943|  3.9623e-04|    0.223987|
|        4080|  4.2998e+00|  4.2998e+00|   -6.375203|  3.9362e-04|    0.224516|
|        4090|  4.2998e+00|  4.2998e+00|   -6.375140|  3.8663e-04|    0.225010|
|        4100|  4.2998e+00|  4.2998e+00|   -6.374711|  3.7509e-04|    0.225440|
|        4110|  5.1598e+00|  5.1598e+00|   -6.373758|  3.5899e-04|    0.225780|
|        4120|  5.1598e+00|  5.1598e+00|   -6.372803|  3.3716e-04|    0.225933|
|        4130|  1.0699e+01|  1.0699e+01|   -6.369949|  3.1382e-04|    0.226105|
|        4140|  5.5206e+00|  5.5206e+00|   -6.364131|  2.8945e-04|    0.225926|
|        4150|  2.4883e+00|  2.4883e+00|   -6.359114|  2.6683e-04|    0.225613|
|        4160|  1.2000e+00|  1.2000e+00|   -6.354629|  2.4560e-04|    0.225229|
|        4170|  1.2000e+00|  1.2000e+00|   -6.351922|  2.3432e-04|    0.224929|
|        4180|  1.2000e+00|  1.2000e+00|   -6.349468|  2.0692e-04|    0.224593|
|        4190|  1.2000e+00|  1.2000e+00|   -6.347382|  1.7143e-04|    0.224225|
|        4200|  1.2000e+00|  1.2000e+00|   -6.345773|  1.4949e-04|    0.223831|
+-----------------------------------------------------------------------+
|        File Writing Summary       |              Filename             |
+-----------------------------------------------------------------------+
|SU2 binary restart                 |restart_flow_G5.dat                |
|Paraview                           |flow_G5.vtu                        |
|Paraview surface                   |surface_flow_G5.vtu                |
+-----------------------------------------------------------------------+
+-----------------------------------------------------------------------------+
|  Inner_Iter|     Min CFL|     Max CFL|      rms[P]|  Cauchy[CD]|          CD|
+-----------------------------------------------------------------------------+
|        4210|  1.2000e+00|  1.2000e+00|   -6.344742|  1.4333e-04|    0.223417|
|        4220|  1.2000e+00|  1.2000e+00|   -6.344380|  1.4189e-04|    0.222990|
|        4230|  1.2000e+00|  1.2000e+00|   -6.344766|  1.4263e-04|    0.222557|
|        4240|  1.2000e+00|  1.2000e+00|   -6.345964|  1.4758e-04|    0.222123|
|        4250|  1.2000e+00|  1.2000e+00|   -6.348026|  1.5346e-04|    0.221697|
|        4260|  1.2000e+00|  1.2000e+00|   -6.350991|  1.6009e-04|    0.221286|
|        4270|  1.2000e+00|  1.2000e+00|   -6.354882|  1.6395e-04|    0.220896|
|        4280|  1.2000e+00|  1.2000e+00|   -6.359708|  1.6490e-04|    0.220535|
|        4290|  1.2000e+00|  1.2000e+00|   -6.365461|  1.6493e-04|    0.220209|
|        4300|  1.2000e+00|  1.2000e+00|   -6.372114|  1.6338e-04|    0.219923|
|        4310|  1.2000e+00|  1.2000e+00|   -6.379627|  1.6158e-04|    0.219684|
|        4320|  1.2000e+00|  1.2000e+00|   -6.387935|  1.5636e-04|    0.219496|
|        4330|  1.2000e+00|  1.2000e+00|   -6.396956|  1.4936e-04|    0.219363|
|        4340|  1.2000e+00|  1.2000e+00|   -6.406584|  1.4193e-04|    0.219288|
|        4350|  1.2000e+00|  1.2000e+00|   -6.416688|  1.3465e-04|    0.219274|
|        4360|  1.2000e+00|  1.2000e+00|   -6.427114|  1.2952e-04|    0.219323|
|        4370|  1.2000e+00|  1.2000e+00|   -6.437683|  1.2886e-04|    0.219436|
|        4380|  1.2000e+00|  1.2000e+00|   -6.448192|  1.2904e-04|    0.219612|
|        4390|  1.2000e+00|  1.2000e+00|   -6.458420|  1.3017e-04|    0.219852|
|        4400|  1.2000e+00|  1.2000e+00|   -6.468137|  1.3010e-04|    0.220153|
+-----------------------------------------------------------------------+
|        File Writing Summary       |              Filename             |
+-----------------------------------------------------------------------+
|SU2 binary restart                 |restart_flow_G5.dat                |
|Paraview                           |flow_G5.vtu                        |
|Paraview surface                   |surface_flow_G5.vtu                |
+-----------------------------------------------------------------------+
+-----------------------------------------------------------------------------+
|  Inner_Iter|     Min CFL|     Max CFL|      rms[P]|  Cauchy[CD]|          CD|
+-----------------------------------------------------------------------------+
|        4410|  1.2000e+00|  1.2000e+00|   -6.477108|  1.2981e-04|    0.220513|
|        4420|  1.0000e+00|  1.0000e+00|   -6.485109|  1.3331e-04|    0.221000|
|        4430|  5.1598e+00|  5.1598e+00|   -6.491945|  1.3590e-04|    0.221474|
|        4440|  6.1917e+00|  6.1917e+00|   -6.501631|  1.4875e-04|    0.222551|
|        4450|  5.1598e+00|  5.1598e+00|   -6.504422|  1.5283e-04|    0.223171|
|        4460|  1.8488e+00|  1.8488e+00|   -6.503860|  1.9000e-04|    0.225673|
|        4470|  1.1448e+01|  1.1448e+01|   -6.497163|  2.0405e-04|    0.226902|
|        4480|  5.9067e+00|  5.9067e+00|   -6.485925|  2.2339e-04|    0.228446|
|        4490|  1.0000e+00|  1.0000e+00|   -6.471905|  2.4627e-04|    0.230206|
|        4500|  6.1917e+00|  6.1917e+00|   -6.467005|  2.4712e-04|    0.230698|
|        4510|  7.4301e+00|  7.4301e+00|   -6.457739|  2.5930e-04|    0.231831|
|        4520|  8.9161e+00|  8.9161e+00|   -6.452666|  2.6552e-04|    0.232602|
|        4530|  1.8488e+00|  1.8488e+00|   -6.456661|  2.6448e-04|    0.232910|
|        4540|  1.1448e+01|  1.1448e+01|   -6.461184|  2.6040e-04|    0.232803|
|        4550|  1.6484e+01|  1.6484e+01|   -6.497732|  2.7597e-04|    0.231599|
|        4560|  1.6484e+01|  1.6484e+01|   -6.572731|  3.0305e-04|    0.229786|
|        4570|  8.5056e+00|  8.5056e+00|   -6.618674|  3.1180e-04|    0.229088|
|        4580|  4.3887e+00|  4.3887e+00|   -6.665689|  3.2064e-04|    0.228444|
|        4590|  1.3105e+00|  1.3105e+00|   -6.700955|  3.2778e-04|    0.227958|
|        4600|  6.7617e+00|  6.7617e+00|   -6.707610|  3.3023e-04|    0.227799|
+-----------------------------------------------------------------------+
|        File Writing Summary       |              Filename             |
+-----------------------------------------------------------------------+
|SU2 binary restart                 |restart_flow_G5.dat                |
|Paraview                           |flow_G5.vtu                        |
|Paraview surface                   |surface_flow_G5.vtu                |
+-----------------------------------------------------------------------+
+-----------------------------------------------------------------------------+
|  Inner_Iter|     Min CFL|     Max CFL|      rms[P]|  Cauchy[CD]|          CD|
+-----------------------------------------------------------------------------+
|        4610|  2.0736e+00|  2.0736e+00|   -6.710013|  3.3213e-04|    0.227640|
|        4620|  5.1598e+00|  5.1598e+00|   -6.703470|  3.3170e-04|    0.227548|
|        4630|  5.1598e+00|  5.1598e+00|   -6.685131|  3.2943e-04|    0.227494|
|        4640|  5.1598e+00|  5.1598e+00|   -6.659627|  3.2531e-04|    0.227499|
|        4650|  5.1598e+00|  5.1598e+00|   -6.631248|  3.2071e-04|    0.227548|
|        4660|  5.1598e+00|  5.1598e+00|   -6.603365|  3.1555e-04|    0.227626|
|        4670|  5.1598e+00|  5.1598e+00|   -6.578160|  3.0824e-04|    0.227712|
|        4680|  5.1598e+00|  5.1598e+00|   -6.556843|  3.0100e-04|    0.227788|
|        4690|  1.2000e+00|  1.2000e+00|   -6.539685|  2.8241e-04|    0.227835|
|        4700|  6.1917e+00|  6.1917e+00|   -6.532891|  2.7148e-04|    0.227845|
|        4710|  7.4301e+00|  7.4301e+00|   -6.521585|  2.2762e-04|    0.227805|
|        4720|  2.6623e+00|  2.6623e+00|   -6.516817|  2.1035e-04|    0.227552|
|        4730|  1.6484e+01|  1.6484e+01|   -6.519774|  1.8916e-04|    0.227215|
|        4740|  7.0880e+00|  7.0880e+00|   -6.528374|  1.6555e-04|    0.226814|
|        4750|  2.0736e+00|  2.0736e+00|   -6.538834|  1.6480e-04|    0.226373|
|        4760|  6.1917e+00|  6.1917e+00|   -6.547286|  1.5239e-04|    0.225966|
|        4770|  6.1917e+00|  6.1917e+00|   -6.561616|  1.4978e-04|    0.225365|
|        4780|  7.4301e+00|  7.4301e+00|   -6.576785|  1.5544e-04|    0.224737|
|        4790|  7.4301e+00|  7.4301e+00|   -6.594436|  1.6695e-04|    0.223988|
|        4800|  8.9161e+00|  8.9161e+00|   -6.610603|  1.5900e-04|    0.223273|
+-----------------------------------------------------------------------+
|        File Writing Summary       |              Filename             |
+-----------------------------------------------------------------------+
|SU2 binary restart                 |restart_flow_G5.dat                |
|Paraview                           |flow_G5.vtu                        |
|Paraview surface                   |surface_flow_G5.vtu                |
+-----------------------------------------------------------------------+
+-----------------------------------------------------------------------------+
|  Inner_Iter|     Min CFL|     Max CFL|      rms[P]|  Cauchy[CD]|          CD|
+-----------------------------------------------------------------------------+
|        4810|  1.5407e+01|  1.5407e+01|   -6.625774|  1.4120e-04|    0.222512|
|        4820|  4.6005e+00|  4.6005e+00|   -6.630310|  1.3549e-04|    0.222153|
|        4830|  2.3738e+00|  2.3738e+00|   -6.623816|  1.2613e-04|    0.222148|
|        4840|  1.4698e+01|  1.4698e+01|   -6.617587|  1.2108e-04|    0.222340|
|        4850|  7.5837e+00|  7.5837e+00|   -6.605802|  1.2683e-04|    0.222816|
|        4860|  3.9130e+00|  3.9130e+00|   -6.595247|  1.3707e-04|    0.223543|
|        4870|  1.6825e+01|  1.6825e+01|   -6.589701|  1.5396e-04|    0.224581|
|        4880|  2.9074e+00|  2.9074e+00|   -6.597209|  1.7865e-04|    0.226025|
|        4890|  1.5002e+01|  1.5002e+01|   -6.607496|  1.9378e-04|    0.226896|
|        4900|  1.5002e+01|  1.5002e+01|   -6.652384|  2.1960e-04|    0.228416|
|        4910|  1.5002e+01|  1.5002e+01|   -6.720079|  2.3776e-04|    0.229534|
|        4920|  1.5002e+01|  1.5002e+01|   -6.790985|  2.4903e-04|    0.230268|
|        4930|  6.4504e+00|  6.4504e+00|   -6.817499|  2.5212e-04|    0.230524|
|        4940|  2.3113e+00|  2.3113e+00|   -6.826336|  2.5742e-04|    0.230876|
|        4950|  1.4311e+01|  1.4311e+01|   -6.820226|  2.6010e-04|    0.231042|
|        4960|  1.7173e+01|  1.7173e+01|   -6.779866|  2.6749e-04|    0.231510|
|        4970|  1.7173e+01|  1.7173e+01|   -6.742168|  2.7076e-04|    0.231957|
|        4980|  1.7173e+01|  1.7173e+01|   -6.730942|  2.6873e-04|    0.232183|
|        4990|  2.9675e+00|  2.9675e+00|   -6.743167|  2.6361e-04|    0.232072|
|        5000|  1.5312e+01|  1.5312e+01|   -6.753325|  2.5943e-04|    0.231863|
+-----------------------------------------------------------------------+
|        File Writing Summary       |              Filename             |
+-----------------------------------------------------------------------+
|SU2 binary restart                 |restart_flow_G5.dat                |
|Paraview                           |flow_G5.vtu                        |
|Paraview surface                   |surface_flow_G5.vtu                |
+-----------------------------------------------------------------------+
+-----------------------------------------------------------------------------+
|  Inner_Iter|     Min CFL|     Max CFL|      rms[P]|  Cauchy[CD]|          CD|
+-----------------------------------------------------------------------------+
|        5010|  1.5312e+00|  1.5312e+00|   -6.782526|  2.6551e-04|    0.231096|
|        5020|  9.4806e+00|  9.4806e+00|   -6.789993|  2.5942e-04|    0.230832|
|        5030|  1.1377e+01|  1.1377e+01|   -6.798149|  2.6327e-04|    0.229966|
|        5040|  1.1377e+01|  1.1377e+01|   -6.789491|  2.6710e-04|    0.228982|
|        5050|  1.1377e+01|  1.1377e+01|   -6.766712|  2.7144e-04|    0.228002|
|        5060|  1.1377e+01|  1.1377e+01|   -6.739872|  2.7272e-04|    0.227153|
|        5070|  1.1377e+01|  1.1377e+01|   -6.718040|  2.7696e-04|    0.226547|
|        5080|  1.1377e+01|  1.1377e+01|   -6.706141|  2.8001e-04|    0.226266|
|        5090|  1.3652e+01|  1.3652e+01|   -6.706188|  2.7920e-04|    0.226388|
|        5100|  4.0765e+00|  4.0765e+00|   -6.714519|  2.7632e-04|    0.226710|
|        5110|  2.1034e+00|  2.1034e+00|   -6.727109|  2.7233e-04|    0.227222|
|        5120|  1.3024e+01|  1.3024e+01|   -6.735009|  2.6085e-04|    0.227622|
|        5130|  6.7199e+00|  6.7199e+00|   -6.748885|  2.4569e-04|    0.228220|
|        5140|  2.0065e+01|  2.0065e+01|   -6.768096|  2.5194e-04|    0.229457|
|        5150|  1.0353e+01|  1.0353e+01|   -6.775223|  2.3541e-04|    0.230041|
|        5160|  1.7891e+01|  1.7891e+01|   -6.772783|  2.4068e-04|    0.231472|
|        5170|  2.1469e+00|  2.1469e+00|   -6.745897|  2.4730e-04|    0.232598|
|        5180|  1.3293e+01|  1.3293e+01|   -6.737549|  2.4815e-04|    0.232905|
|        5190|  6.8588e+00|  6.8588e+00|   -6.723605|  2.4782e-04|    0.233242|
|        5200|  3.5390e+00|  3.5390e+00|   -6.711924|  2.4982e-04|    0.233526|
+-----------------------------------------------------------------------+
|        File Writing Summary       |              Filename             |
+-----------------------------------------------------------------------+
|SU2 binary restart                 |restart_flow_G5.dat                |
|Paraview                           |flow_G5.vtu                        |
|Paraview surface                   |surface_flow_G5.vtu                |
+-----------------------------------------------------------------------+
+-----------------------------------------------------------------------------+
|  Inner_Iter|     Min CFL|     Max CFL|      rms[P]|  Cauchy[CD]|          CD|
+-----------------------------------------------------------------------------+
|        5210|  1.5217e+01|  1.5217e+01|   -6.704436|  2.4597e-04|    0.233774|
|        5220|  1.5217e+01|  1.5217e+01|   -6.704599|  2.4296e-04|    0.234049|
|        5230|  3.7865e+00|  3.7865e+00|   -6.719156|  2.4113e-04|    0.234170|
|        5240|  1.9537e+00|  1.9537e+00|   -6.736481|  2.4057e-04|    0.234252|
|        5250|  1.2097e+01|  1.2097e+01|   -6.753154|  2.3746e-04|    0.234281|
|        5260|  6.2418e+00|  6.2418e+00|   -6.783245|  2.2457e-04|    0.234303|
|        5270|  1.8638e+00|  1.8638e+00|   -6.830213|  2.2096e-04|    0.234247|
|        5280|  1.1540e+01|  1.1540e+01|   -6.852825|  2.0682e-04|    0.234195|
|        5290|  5.9545e+00|  5.9545e+00|   -6.882477|  1.9198e-04|    0.234059|
|        5300|  3.0724e+00|  3.0724e+00|   -6.902662|  1.7831e-04|    0.233855|
|        5310|  1.9023e+01|  1.9023e+01|   -6.909513|  1.6777e-04|    0.233599|
|        5320|  9.8156e+00|  9.8156e+00|   -6.908132|  1.6092e-04|    0.233374|
|        5330|  2.9309e+00|  2.9309e+00|   -6.886019|  1.6580e-04|    0.232801|
|        5340|  1.8148e+01|  1.8148e+01|   -6.871717|  1.6944e-04|    0.232436|
|        5350|  1.8148e+01|  1.8148e+01|   -6.836156|  1.7762e-04|    0.231632|
|        5360|  2.6132e+00|  2.6132e+00|   -6.825000|  1.7585e-04|    0.231212|
|        5370|  1.6181e+01|  1.6181e+01|   -6.826836|  1.7027e-04|    0.231128|
|        5380|  8.3488e+00|  8.3488e+00|   -6.833487|  1.6008e-04|    0.231124|
|        5390|  4.3078e+00|  4.3078e+00|   -6.845181|  1.4000e-04|    0.231213|
|        5400|  1.5436e+01|  1.5436e+01|   -6.863026|  1.3456e-04|    0.231486|
+-----------------------------------------------------------------------+
|        File Writing Summary       |              Filename             |
+-----------------------------------------------------------------------+
|SU2 binary restart                 |restart_flow_G5.dat                |
|Paraview                           |flow_G5.vtu                        |
|Paraview surface                   |surface_flow_G5.vtu                |
+-----------------------------------------------------------------------+
+-----------------------------------------------------------------------------+
|  Inner_Iter|     Min CFL|     Max CFL|      rms[P]|  Cauchy[CD]|          CD|
+-----------------------------------------------------------------------------+
|        5410|  5.5309e+00|  5.5309e+00|   -6.880434|  1.1426e-04|    0.231747|
|        5420|  1.6515e+00|  1.6515e+00|   -6.902020|  1.0314e-04|    0.232227|
|        5430|  1.0226e+01|  1.0226e+01|   -6.908699|  1.0194e-04|    0.232464|
|        5440|  1.0226e+00|  1.0226e+00|   -6.921466|  1.0652e-04|    0.233068|
|        5450|  6.3315e+00|  6.3315e+00|   -6.923570|  1.0440e-04|    0.233227|
|        5460|  7.5978e+00|  7.5978e+00|   -6.924292|  1.0776e-04|    0.233671|
|        5470|  4.2998e+00|  4.2998e+00|   -6.922863|  1.0618e-04|    0.233854|
|        5480|  6.1917e+00|  6.1917e+00|   -6.918396|  1.0961e-04|    0.234176|
|        5490|  1.4400e+00|  1.4400e+00|   -6.912021|  1.1266e-04|    0.234436|
|        5500|  1.2000e+00|  1.2000e+00|   -6.907993|  1.1462e-04|    0.234580|
|        5510|  5.1598e+00|  5.1598e+00|   -6.904503|  1.1648e-04|    0.234711|
|        5520|  5.1598e+00|  5.1598e+00|   -6.897430|  1.1892e-04|    0.234911|
|        5530|  5.1598e+00|  5.1598e+00|   -6.890743|  1.2093e-04|    0.235081|
|        5540|  5.1598e+00|  5.1598e+00|   -6.884938|  1.2094e-04|    0.235219|
|        5550|  5.1598e+00|  5.1598e+00|   -6.880416|  1.1930e-04|    0.235327|
|        5560|  5.1598e+00|  5.1598e+00|   -6.877498|  1.1625e-04|    0.235406|
|        5570|  5.1598e+00|  5.1598e+00|   -6.876428|  1.1331e-04|    0.235459|
|        5580|  5.1598e+00|  5.1598e+00|   -6.877388|  1.0398e-04|    0.235489|
|        5590|  5.1598e+00|  5.1598e+00|   -6.880508|  9.7880e-05|    0.235500|
|        5600|  5.1598e+00|  5.1598e+00|   -6.885873|  8.4116e-05|    0.235494|
+-----------------------------------------------------------------------+
|        File Writing Summary       |              Filename             |
+-----------------------------------------------------------------------+
|SU2 binary restart                 |restart_flow_G5.dat                |
|Paraview                           |flow_G5.vtu                        |
|Paraview surface                   |surface_flow_G5.vtu                |
+-----------------------------------------------------------------------+
+-----------------------------------------------------------------------------+
|  Inner_Iter|     Min CFL|     Max CFL|      rms[P]|  Cauchy[CD]|          CD|
+-----------------------------------------------------------------------------+
|        5610|  6.1917e+00|  6.1917e+00|   -6.894042|  7.7177e-05|    0.235475|
|        5620|  6.1917e+00|  6.1917e+00|   -6.906400|  7.6277e-05|    0.235443|
|        5630|  8.9161e+00|  8.9161e+00|   -6.924293|  7.6781e-05|    0.235396|
|        5640|  1.5407e+01|  1.5407e+01|   -6.959479|  7.6576e-05|    0.235317|
|        5650|  5.5206e+00|  5.5206e+00|   -6.994067|  7.2764e-05|    0.235264|
|        5660|  2.8485e+00|  2.8485e+00|   -7.029267|  6.9248e-05|    0.235206|
|        5670|  1.7637e+01|  1.7637e+01|   -7.049023|  6.1747e-05|    0.235160|
|        5680|  7.5837e+00|  7.5837e+00|   -7.067685|  5.8432e-05|    0.235115|
|        5690|  1.5726e+01|  1.5726e+01|   -7.082880|  5.0203e-05|    0.234989|
|        5700|  5.6348e+00|  5.6348e+00|   -7.082537|  4.8891e-05|    0.234905|
|        5710|  1.4021e+01|  1.4021e+01|   -7.074148|  4.4209e-05|    0.234734|
|        5720|  1.6825e+00|  1.6825e+00|   -7.061676|  4.5638e-05|    0.234467|
|        5730|  1.0418e+01|  1.0418e+01|   -7.059147|  4.1598e-05|    0.234381|
|        5740|  5.3753e+00|  5.3753e+00|   -7.059349|  3.9607e-05|    0.234237|
|        5750|  2.7736e+00|  2.7736e+00|   -7.067404|  3.9949e-05|    0.234073|
|        5760|  1.7173e+01|  1.7173e+01|   -7.077228|  3.9496e-05|    0.233970|
[...]
+-----------------------------------------------------------------------------+
|        8410|  6.1917e+00|  6.1917e+00|   -7.623637|  1.3900e-05|    0.219860|
|        8420|  6.1917e+00|  6.1917e+00|   -7.623183|  1.4058e-05|    0.219823|
|        8430|  1.0000e+00|  1.0000e+00|   -7.622806|  1.4223e-05|    0.219787|
|        8440|  5.1598e+00|  5.1598e+00|   -7.622766|  1.4012e-05|    0.219772|
|        8450|  5.1598e+00|  5.1598e+00|   -7.622651|  1.4077e-05|    0.219742|
|        8460|  5.1598e+00|  5.1598e+00|   -7.622619|  1.4143e-05|    0.219712|
|        8470|  5.1598e+00|  5.1598e+00|   -7.622710|  1.4209e-05|    0.219683|
|        8480|  5.1598e+00|  5.1598e+00|   -7.622952|  1.4272e-05|    0.219654|
|        8490|  5.1598e+00|  5.1598e+00|   -7.623356|  1.4328e-05|    0.219626|
|        8500|  5.1598e+00|  5.1598e+00|   -7.623931|  1.4375e-05|    0.219598|
|        8510|  5.1598e+00|  5.1598e+00|   -7.624680|  1.4411e-05|    0.219570|
|        8520|  5.1598e+00|  5.1598e+00|   -7.625603|  1.4406e-05|    0.219544|
|        8530|  5.1598e+00|  5.1598e+00|   -7.626697|  1.4319e-05|    0.219518|
|        8540|  5.1598e+00|  5.1598e+00|   -7.627959|  1.4213e-05|    0.219492|
|        8550|  5.1598e+00|  5.1598e+00|   -7.629383|  1.4088e-05|    0.219468|
|        8560|  5.1598e+00|  5.1598e+00|   -7.630962|  1.3941e-05|    0.219443|
|        8570|  5.1598e+00|  5.1598e+00|   -7.632692|  1.3771e-05|    0.219420|
|        8580|  5.1598e+00|  5.1598e+00|   -7.634564|  1.3578e-05|    0.219398|
|        8590|  5.1598e+00|  5.1598e+00|   -7.636570|  1.3362e-05|    0.219376|
|        8600|  2.0736e+00|  2.0736e+00|   -7.638211|  1.3009e-05|    0.219361|
+-----------------------------------------------------------------------+
|        File Writing Summary       |              Filename             |
+-----------------------------------------------------------------------+
|SU2 binary restart                 |restart_flow_G5.dat                |
|Paraview                           |flow_G5.vtu                        |
|Paraview surface                   |surface_flow_G5.vtu                |
+-----------------------------------------------------------------------+
+-----------------------------------------------------------------------------+
|  Inner_Iter|     Min CFL|     Max CFL|      rms[P]|  Cauchy[CD]|          CD|
+-----------------------------------------------------------------------------+
|        8610|  1.4400e+00|  1.4400e+00|   -7.639690|  1.2617e-05|    0.219347|
|        8620|  1.2000e+00|  1.2000e+00|   -7.641052|  1.2188e-05|    0.219335|
|        8630|  1.0000e+00|  1.0000e+00|   -7.642260|  1.1750e-05|    0.219323|
|        8640|  1.0000e+00|  1.0000e+00|   -7.643484|  1.1274e-05|    0.219313|
|        8650|  1.0000e+00|  1.0000e+00|   -7.644722|  1.0791e-05|    0.219304|
|        8660|  1.0000e+00|  1.0000e+00|   -7.645976|  1.0304e-05|    0.219294|
|        8670|  1.0000e+00|  1.0000e+00|   -7.647243|  9.8163e-06|    0.219284|
|        8680|  1.0000e+00|  1.0000e+00|   -7.648525|  9.3287e-06|    0.219275|
|        8690|  1.0000e+00|  1.0000e+00|   -7.649821|  9.2238e-06|    0.219266|
|        8700|  1.0000e+00|  1.0000e+00|   -7.651132|  8.8484e-06|    0.219256|
|        8710|  1.0000e+00|  1.0000e+00|   -7.652456|  8.4756e-06|    0.219247|
|        8720|  1.0000e+00|  1.0000e+00|   -7.653794|  8.1064e-06|    0.219238|
|        8730|  1.0000e+00|  1.0000e+00|   -7.655145|  7.7424e-06|    0.219229|
|        8740|  1.0000e+00|  1.0000e+00|   -7.656508|  7.3848e-06|    0.219221|
|        8750|  1.0000e+00|  1.0000e+00|   -7.657881|  7.0349e-06|    0.219212|
|        8760|  1.0000e+00|  1.0000e+00|   -7.659262|  6.6939e-06|    0.219203|
|        8770|  1.0000e+00|  1.0000e+00|   -7.660651|  6.3626e-06|    0.219195|
|        8780|  1.0000e+00|  1.0000e+00|   -7.662045|  6.0415e-06|    0.219186|
|        8790|  1.0000e+00|  1.0000e+00|   -7.663443|  5.7311e-06|    0.219178|
|        8800|  1.0000e+00|  1.0000e+00|   -7.664844|  5.4318e-06|    0.219170|
+-----------------------------------------------------------------------+
|        File Writing Summary       |              Filename             |
+-----------------------------------------------------------------------+
|SU2 binary restart                 |restart_flow_G5.dat                |
|Paraview                           |flow_G5.vtu                        |
|Paraview surface                   |surface_flow_G5.vtu                |
+-----------------------------------------------------------------------+
+-----------------------------------------------------------------------------+
|  Inner_Iter|     Min CFL|     Max CFL|      rms[P]|  Cauchy[CD]|          CD|
+-----------------------------------------------------------------------------+
|        8810|  1.0000e+00|  1.0000e+00|   -7.666246|  5.1439e-06|    0.219161|
|        8820|  1.0000e+00|  1.0000e+00|   -7.667648|  4.8675e-06|    0.219153|
|        8830|  1.0000e+00|  1.0000e+00|   -7.669050|  4.6027e-06|    0.219145|
|        8840|  1.0000e+00|  1.0000e+00|   -7.670449|  4.3493e-06|    0.219137|
|        8850|  1.0000e+00|  1.0000e+00|   -7.671846|  4.2208e-06|    0.219129|
|        8860|  1.0000e+00|  1.0000e+00|   -7.673240|  4.1213e-06|    0.219121|
|        8870|  1.0000e+00|  1.0000e+00|   -7.674631|  4.0490e-06|    0.219113|
|        8880|  1.0000e+00|  1.0000e+00|   -7.676017|  3.9789e-06|    0.219105|
|        8890|  1.0000e+00|  1.0000e+00|   -7.677399|  3.9410e-06|    0.219098|
|        8900|  1.0000e+00|  1.0000e+00|   -7.678775|  3.9054e-06|    0.219090|
|        8910|  1.0000e+00|  1.0000e+00|   -7.680144|  3.8722e-06|    0.219082|
|        8920|  1.0000e+00|  1.0000e+00|   -7.681505|  3.8413e-06|    0.219074|
|        8930|  1.0000e+00|  1.0000e+00|   -7.682853|  3.8127e-06|    0.219066|
|        8940|  1.0000e+00|  1.0000e+00|   -7.684188|  3.7863e-06|    0.219058|
|        8950|  1.0000e+00|  1.0000e+00|   -7.685507|  3.7622e-06|    0.219050|
|        8960|  1.0000e+00|  1.0000e+00|   -7.686808|  3.7404e-06|    0.219042|
|        8970|  1.0000e+00|  1.0000e+00|   -7.688091|  3.7209e-06|    0.219034|
|        8980|  1.0000e+00|  1.0000e+00|   -7.689355|  3.7036e-06|    0.219027|
|        8990|  1.0000e+00|  1.0000e+00|   -7.690601|  3.6888e-06|    0.219019|
|        9000|  1.0000e+00|  1.0000e+00|   -7.691827|  3.6763e-06|    0.219011|
+-----------------------------------------------------------------------+
|        File Writing Summary       |              Filename             |
+-----------------------------------------------------------------------+
|SU2 binary restart                 |restart_flow_G5.dat                |
|Paraview                           |flow_G5.vtu                        |
|Paraview surface                   |surface_flow_G5.vtu                |
+-----------------------------------------------------------------------+
+-----------------------------------------------------------------------------+
|  Inner_Iter|     Min CFL|     Max CFL|      rms[P]|  Cauchy[CD]|          CD|
+-----------------------------------------------------------------------------+
|        9010|  1.0000e+00|  1.0000e+00|   -7.693034|  3.6662e-06|    0.219002|
|        9020|  1.0000e+00|  1.0000e+00|   -7.694222|  3.6585e-06|    0.218994|
|        9030|  1.0000e+00|  1.0000e+00|   -7.695389|  3.6531e-06|    0.218986|
|        9040|  1.0000e+00|  1.0000e+00|   -7.696536|  3.6501e-06|    0.218978|
|        9050|  1.0000e+00|  1.0000e+00|   -7.697663|  3.6494e-06|    0.218970|
|        9060|  1.0000e+00|  1.0000e+00|   -7.698768|  3.6508e-06|    0.218962|
|        9070|  1.0000e+00|  1.0000e+00|   -7.699852|  3.6542e-06|    0.218953|
|        9080|  1.0000e+00|  1.0000e+00|   -7.700914|  3.6597e-06|    0.218945|
|        9090|  1.0000e+00|  1.0000e+00|   -7.701955|  3.6669e-06|    0.218936|
|        9100|  1.0000e+00|  1.0000e+00|   -7.702976|  3.6760e-06|    0.218928|
|        9110|  1.0000e+00|  1.0000e+00|   -7.703978|  3.6867e-06|    0.218919|
|        9120|  1.0000e+00|  1.0000e+00|   -7.704961|  3.6990e-06|    0.218911|
|        9130|  1.0000e+00|  1.0000e+00|   -7.705928|  3.7127e-06|    0.218902|
|        9140|  1.0000e+00|  1.0000e+00|   -7.706880|  3.7278e-06|    0.218893|
|        9150|  1.0000e+00|  1.0000e+00|   -7.707819|  3.7440e-06|    0.218885|
|        9160|  1.0000e+00|  1.0000e+00|   -7.708747|  3.7614e-06|    0.218876|
|        9170|  1.0000e+00|  1.0000e+00|   -7.709665|  3.7796e-06|    0.218867|
|        9180|  1.0000e+00|  1.0000e+00|   -7.710575|  3.7987e-06|    0.218858|
|        9190|  1.0000e+00|  1.0000e+00|   -7.711479|  3.8185e-06|    0.218849|
|        9200|  1.0000e+00|  1.0000e+00|   -7.712378|  3.8387e-06|    0.218840|
+-----------------------------------------------------------------------+
|        File Writing Summary       |              Filename             |
+-----------------------------------------------------------------------+
|SU2 binary restart                 |restart_flow_G5.dat                |
|Paraview                           |flow_G5.vtu                        |
|Paraview surface                   |surface_flow_G5.vtu                |
+-----------------------------------------------------------------------+
+-----------------------------------------------------------------------------+
|  Inner_Iter|     Min CFL|     Max CFL|      rms[P]|  Cauchy[CD]|          CD|
+-----------------------------------------------------------------------------+
|        9210|  1.0000e+00|  1.0000e+00|   -7.713275|  3.8594e-06|    0.218831|
|        9220|  1.0000e+00|  1.0000e+00|   -7.714170|  3.8803e-06|    0.218822|
|        9230|  1.0000e+00|  1.0000e+00|   -7.715065|  3.9012e-06|    0.218813|
|        9240|  1.0000e+00|  1.0000e+00|   -7.715963|  3.9221e-06|    0.218804|
|        9250|  1.0000e+00|  1.0000e+00|   -7.716864|  3.9428e-06|    0.218795|
|        9260|  1.0000e+00|  1.0000e+00|   -7.717771|  3.9632e-06|    0.218786|
|        9270|  1.0000e+00|  1.0000e+00|   -7.718685|  3.9830e-06|    0.218776|
|        9280|  4.2998e+00|  4.2998e+00|   -7.719609|  3.9966e-06|    0.218768|
|        9290|  4.2998e+00|  4.2998e+00|   -7.721127|  4.1254e-06|    0.218752|
|        9300|  4.2998e+00|  4.2998e+00|   -7.722677|  4.2534e-06|    0.218737|
|        9310|  4.2998e+00|  4.2998e+00|   -7.724291|  4.3799e-06|    0.218722|
|        9320|  4.2998e+00|  4.2998e+00|   -7.725980|  4.5041e-06|    0.218707|
|        9330|  4.2998e+00|  4.2998e+00|   -7.727747|  4.6253e-06|    0.218692|
|        9340|  4.2998e+00|  4.2998e+00|   -7.729588|  4.7426e-06|    0.218677|
|        9350|  4.2998e+00|  4.2998e+00|   -7.731506|  4.8555e-06|    0.218662|
|        9360|  4.2998e+00|  4.2998e+00|   -7.733501|  4.9634e-06|    0.218648|
|        9370|  4.2998e+00|  4.2998e+00|   -7.735575|  5.0662e-06|    0.218634|
|        9380|  4.2998e+00|  4.2998e+00|   -7.737732|  5.1635e-06|    0.218620|
|        9390|  4.2998e+00|  4.2998e+00|   -7.739978|  5.2550e-06|    0.218606|
|        9400|  4.2998e+00|  4.2998e+00|   -7.742318|  5.3407e-06|    0.218593|
+-----------------------------------------------------------------------+
|        File Writing Summary       |              Filename             |
+-----------------------------------------------------------------------+
|SU2 binary restart                 |restart_flow_G5.dat                |
|Paraview                           |flow_G5.vtu                        |
|Paraview surface                   |surface_flow_G5.vtu                |
+-----------------------------------------------------------------------+
+-----------------------------------------------------------------------------+
|  Inner_Iter|     Min CFL|     Max CFL|      rms[P]|  Cauchy[CD]|          CD|
+-----------------------------------------------------------------------------+
|        9410|  4.2998e+00|  4.2998e+00|   -7.744757|  5.4201e-06|    0.218579|
|        9420|  4.2998e+00|  4.2998e+00|   -7.747296|  5.4929e-06|    0.218567|
|        9430|  4.2998e+00|  4.2998e+00|   -7.749936|  5.5587e-06|    0.218554|
|        9440|  4.2998e+00|  4.2998e+00|   -7.752673|  5.6175e-06|    0.218542|
|        9450|  4.2998e+00|  4.2998e+00|   -7.755502|  5.6691e-06|    0.218530|
|        9460|  4.2998e+00|  4.2998e+00|   -7.758419|  5.7134e-06|    0.218519|
|        9470|  4.2998e+00|  4.2998e+00|   -7.761421|  5.7506e-06|    0.218508|
|        9480|  4.2998e+00|  4.2998e+00|   -7.764509|  5.7806e-06|    0.218497|
|        9490|  4.2998e+00|  4.2998e+00|   -7.767686|  5.8035e-06|    0.218487|
|        9500|  4.2998e+00|  4.2998e+00|   -7.770952|  5.8196e-06|    0.218477|
|        9510|  4.2998e+00|  4.2998e+00|   -7.774306|  5.8291e-06|    0.218467|
|        9520|  4.2998e+00|  4.2998e+00|   -7.777738|  5.8322e-06|    0.218458|
|        9530|  4.2998e+00|  4.2998e+00|   -7.781241|  5.8349e-06|    0.218449|
|        9540|  4.2998e+00|  4.2998e+00|   -7.784808|  5.7159e-06|    0.218440|
|        9550|  4.2998e+00|  4.2998e+00|   -7.788431|  5.5915e-06|    0.218432|
|        9560|  4.2998e+00|  4.2998e+00|   -7.792103|  5.4626e-06|    0.218423|
|        9570|  4.2998e+00|  4.2998e+00|   -7.795819|  5.3304e-06|    0.218416|
|        9580|  4.2998e+00|  4.2998e+00|   -7.799570|  5.1960e-06|    0.218408|
|        9590|  4.2998e+00|  4.2998e+00|   -7.803349|  5.0604e-06|    0.218401|
|        9600|  4.2998e+00|  4.2998e+00|   -7.807146|  4.9247e-06|    0.218393|
+-----------------------------------------------------------------------+
|        File Writing Summary       |              Filename             |
+-----------------------------------------------------------------------+
|SU2 binary restart                 |restart_flow_G5.dat                |
|Paraview                           |flow_G5.vtu                        |
|Paraview surface                   |surface_flow_G5.vtu                |
+-----------------------------------------------------------------------+
+-----------------------------------------------------------------------------+
|  Inner_Iter|     Min CFL|     Max CFL|      rms[P]|  Cauchy[CD]|          CD|
+-----------------------------------------------------------------------------+
|        9610|  4.2998e+00|  4.2998e+00|   -7.810954|  4.7898e-06|    0.218386|
|        9620|  4.2998e+00|  4.2998e+00|   -7.814760|  4.6562e-06|    0.218379|
|        9630|  4.2998e+00|  4.2998e+00|   -7.818554|  4.5246e-06|    0.218373|
|        9640|  4.2998e+00|  4.2998e+00|   -7.822325|  4.3955e-06|    0.218366|
|        9650|  4.2998e+00|  4.2998e+00|   -7.826062|  4.2696e-06|    0.218359|
|        9660|  4.2998e+00|  4.2998e+00|   -7.829756|  4.1476e-06|    0.218353|
|        9670|  4.2998e+00|  4.2998e+00|   -7.833398|  4.0302e-06|    0.218347|
|        9680|  4.2998e+00|  4.2998e+00|   -7.836982|  3.9181e-06|    0.218340|
|        9690|  4.2998e+00|  4.2998e+00|   -7.840501|  3.8118e-06|    0.218334|
|        9700|  4.2998e+00|  4.2998e+00|   -7.843950|  3.7117e-06|    0.218328|
|        9710|  4.2998e+00|  4.2998e+00|   -7.847322|  3.6183e-06|    0.218321|
|        9720|  4.2998e+00|  4.2998e+00|   -7.850612|  3.5318e-06|    0.218315|
|        9730|  4.2998e+00|  4.2998e+00|   -7.853818|  3.4524e-06|    0.218309|
|        9740|  4.2998e+00|  4.2998e+00|   -7.856937|  3.3802e-06|    0.218302|
|        9750|  4.2998e+00|  4.2998e+00|   -7.859971|  3.3154e-06|    0.218296|
|        9760|  4.2998e+00|  4.2998e+00|   -7.862921|  3.2580e-06|    0.218289|
|        9770|  4.2998e+00|  4.2998e+00|   -7.865793|  3.2078e-06|    0.218283|
|        9780|  4.2998e+00|  4.2998e+00|   -7.868590|  3.1648e-06|    0.218276|
|        9790|  4.2998e+00|  4.2998e+00|   -7.871319|  3.1289e-06|    0.218269|
|        9800|  4.2998e+00|  4.2998e+00|   -7.873988|  3.0997e-06|    0.218262|
+-----------------------------------------------------------------------+
|        File Writing Summary       |              Filename             |
+-----------------------------------------------------------------------+
|SU2 binary restart                 |restart_flow_G5.dat                |
|Paraview                           |flow_G5.vtu                        |
|Paraview surface                   |surface_flow_G5.vtu                |
+-----------------------------------------------------------------------+
+-----------------------------------------------------------------------------+
|  Inner_Iter|     Min CFL|     Max CFL|      rms[P]|  Cauchy[CD]|          CD|
+-----------------------------------------------------------------------------+
|        9810|  4.2998e+00|  4.2998e+00|   -7.876602|  3.0770e-06|    0.218255|
|        9820|  4.2998e+00|  4.2998e+00|   -7.879172|  3.0603e-06|    0.218249|
|        9830|  4.2998e+00|  4.2998e+00|   -7.881706|  3.0492e-06|    0.218241|
|        9840|  4.2998e+00|  4.2998e+00|   -7.884214|  3.0433e-06|    0.218234|
|        9850|  4.2998e+00|  4.2998e+00|   -7.886709|  3.0420e-06|    0.218227|
|        9860|  4.2998e+00|  4.2998e+00|   -7.889201|  3.0448e-06|    0.218220|
|        9870|  4.2998e+00|  4.2998e+00|   -7.891703|  3.0513e-06|    0.218213|
|        9880|  4.2998e+00|  4.2998e+00|   -7.894225|  3.0609e-06|    0.218206|
|        9890|  4.2998e+00|  4.2998e+00|   -7.896776|  3.0730e-06|    0.218198|
|        9900|  4.2998e+00|  4.2998e+00|   -7.899362|  3.0870e-06|    0.218191|
|        9910|  4.2998e+00|  4.2998e+00|   -7.901990|  3.1025e-06|    0.218184|
|        9920|  4.2998e+00|  4.2998e+00|   -7.904664|  3.1187e-06|    0.218176|
|        9930|  4.2998e+00|  4.2998e+00|   -7.907388|  3.1352e-06|    0.218169|
|        9940|  4.2998e+00|  4.2998e+00|   -7.910167|  3.1512e-06|    0.218162|
|        9950|  4.2998e+00|  4.2998e+00|   -7.913003|  3.1662e-06|    0.218155|
|        9960|  4.2998e+00|  4.2998e+00|   -7.915900|  3.1797e-06|    0.218148|
|        9970|  4.2998e+00|  4.2998e+00|   -7.918863|  3.1911e-06|    0.218141|
|        9980|  4.2998e+00|  4.2998e+00|   -7.921893|  3.1999e-06|    0.218134|
|        9990|  4.2998e+00|  4.2998e+00|   -7.924994|  3.2057e-06|    0.218127|
|        9998|  4.2998e+00|  4.2998e+00|   -7.927526|  3.2078e-06|    0.218122|

----------------------------- Solver Exit -------------------------------

Maximum number of iterations reached (ITER = 9999) before convergence.
+-----------------------------------------------------------------------+
|      Convergence Field     |     Value    |   Criterion  |  Converged |
+-----------------------------------------------------------------------+
|                      rms[P]|      -7.92753|          < -9|          No|
|                  Cauchy[CD]|   3.20777e-06|       < 1e-06|          No|
+-----------------------------------------------------------------------+
-------------------------------------------------------------------------
+-----------------------------------------------------------------------+
|        File Writing Summary       |              Filename             |
+-----------------------------------------------------------------------+
|SU2 binary restart                 |restart_flow_G5.dat                |
|Paraview                           |flow_G5.vtu                        |
|Paraview surface                   |surface_flow_G5.vtu                |
+-----------------------------------------------------------------------+

------------------------- Solver Postprocessing -------------------------
Deleted CNumerics container.
Deleted CIntegration container.
Deleted CSolver container.
Deleted CIteration container.
Deleted CInterface container.
Deleted CGeometry container.
Deleted CFreeFormDefBox class.
Deleted CSurfaceMovement class.
Deleted CVolumetricMovement class.
Deleted CConfig container.
Deleted nInst container.
Deleted COutput class.
-------------------------------------------------------------------------

------------------------- Exit Success (SU2_CFD) ------------------------

