
-------------------------------------------------------------------------
|    ___ _   _ ___                                                      |
|   / __| | | |_  )   Release 7.4.0 "Blackbird"                         |
|   \__ \ |_| |/ /                                                      |
|   |___/\___//___|   Suite (Computational Fluid Dynamics Code)         |
|                                                                       |
-------------------------------------------------------------------------
| SU2 Project Website: https://su2code.github.io                        |
|                                                                       |
| The SU2 Project is maintained by the SU2 Foundation                   |
| (http://su2foundation.org)                                            |
-------------------------------------------------------------------------
| Copyright 2012-2022, SU2 Contributors                                 |
|                                                                       |
| SU2 is free software; you can redistribute it and/or                  |
| modify it under the terms of the GNU Lesser General Public            |
| License as published by the Free Software Foundation; either          |
| version 2.1 of the License, or (at your option) any later version.    |
|                                                                       |
| SU2 is distributed in the hope that it will be useful,                |
| but WITHOUT ANY WARRANTY; without even the implied warranty of        |
| MERCHANTABILITY or FITNESS FOR A PARTICULAR PURPOSE. See the GNU      |
| Lesser General Public License for more details.                       |
|                                                                       |
| You should have received a copy of the GNU Lesser General Public      |
| License along with SU2. If not, see <http://www.gnu.org/licenses/>.   |
-------------------------------------------------------------------------

Parsing config file for zone 0

----------------- Physical Case Definition ( Zone 0 ) -------------------
Incompressible RANS equations.
Turbulence model: Spalart-Allmaras-noft2
Hybrid RANS/LES: No Hybrid RANS/LES
Reading and writing binary SU2 native restart files.
Read flow solution from: ../../O1/case_A13/restart_flow_aoa13.dat.
Non-Dimensional simulation using intialization values.
The reference area is 1 m^2.
The semi-span will be computed using the max y(3D) value.
The reference length is 1.00898 m.
Reference origin for moment evaluation is (-0.756, 0, 0).
Surface(s) where the force coefficients are evaluated: AIRFOIL.

Surface(s) plotted in the output file: AIRFOIL.
Input mesh file name: ../meshG5/meshG5.su2

--------------- Space Numerical Integration ( Zone 0 ) ------------------
Flux difference splitting (FDS) upwind scheme for the flow inviscid terms.
Second order integration in space, with slope limiter.
Venkatakrishnan slope-limiting method, with constant: 0.056.
The reference element size is: 1. 
Average of gradients with correction (viscous flow terms).
Average of gradients with correction (viscous turbulence terms).
Gradient for upwind reconstruction: unweighted Least-Squares.
Gradient for viscous and source terms: Green-Gauss.

--------------- Time Numerical Integration  ( Zone 0 ) ------------------
Local time stepping (steady state simulation).
Euler implicit method for the flow equations.
FGMRES is used for solving the linear system.
Using a ILU(0) preconditioning.
Convergence criteria of the linear solver: 1e-06.
Max number of linear iterations: 10.
CFL adaptation. Factor down: 0.1, factor up: 1.2,
                lower limit: 1, upper limit: 1000,
                acceptable linear residual: 0.001.
Courant-Friedrichs-Lewy number:        2
Euler implicit time integration for the turbulence model.

------------------ Convergence Criteria  ( Zone 0 ) ---------------------
Maximum number of solver subiterations: 9999.
Begin convergence monitoring at iteration 10.
Residual minimum value: 1e-9.
Cauchy series min. value: 1e-06.
Number of Cauchy elements: 250.
Begin windowed time average at iteration 0.

-------------------- Output Information ( Zone 0 ) ----------------------
File writing frequency: 
+------------------------------------+
|                     File| Frequency|
+------------------------------------+
|                  RESTART|       200|
|                 PARAVIEW|       200|
|         SURFACE_PARAVIEW|       200|
+------------------------------------+
Writing the convergence history file every 1 inner iterations.
Writing the screen convergence history every 10 inner iterations.
The tabular file format is CSV (.csv).
Convergence history file name: history_aoa13.
Forces breakdown file name: forces_breakdown.dat.
Surface file name: surface_flow_aoa13.
Volume file name: flow_aoa13.
Restart file name: restart_flow_aoa13.dat.

------------- Config File Boundary Information ( Zone 0 ) ---------------
+-----------------------------------------------------------------------+
|                        Marker Type|                        Marker Name|
+-----------------------------------------------------------------------+
|                          Far-field|                           FARFIELD|
+-----------------------------------------------------------------------+
|                     Heat flux wall|                            AIRFOIL|
+-----------------------------------------------------------------------+

-------------------- Output Preprocessing ( Zone 0 ) --------------------

WARNING: SURFACE_PRESSURE_DROP can only be computed for at least 2 surfaces (outlet, inlet, ...)

Screen output fields: INNER_ITER, MIN_CFL, MAX_CFL, RMS_PRESSURE, CAUCHY_DRAG, DRAG
History output group(s): INNER_ITER, MIN_CFL, MAX_CFL, RMS_RES, LIFT, DRAG, MOMENT_Z, CAUCHY
Convergence field(s): RMS_PRESSURE, DRAG
Warning: No (valid) fields chosen for time convergence monitoring. Time convergence monitoring inactive.
Volume output fields: COORDINATES, SOLUTION, PRIMITIVE, RESIDUAL, MESH_QUALITY

------------------- Geometry Preprocessing ( Zone 0 ) -------------------
Two dimensional problem.
361479 grid points before partitioning.
360180 volume elements before partitioning.
2 surface markers.
724 boundary elements in index 0 (Marker = AIRFOIL).
1874 boundary elements in index 1 (Marker = FARFIELD).
Executing the partitioning functions.
Building the graph adjacency structure.
Calling ParMETIS... graph partitioning complete (4050 edge cuts).
Distributing ParMETIS coloring.
Rebalancing vertices.
Rebalancing volume element connectivity.
Rebalancing markers and surface elements.
369602 vertices including ghost points. 
364230 interior elements including halo cells. 
364230 quadrilaterals.
Establishing MPI communication patterns.
Setting point connectivity.
Renumbering points (Reverse Cuthill McKee Ordering).
Recomputing point connectivity.
Setting element connectivity.
Checking the numerical grid orientation.
All volume elements are correctly orientend.
There has been a re-orientation of 1305 LINE surface elements.
Identifying edges and vertices.
Setting the control volume structure.
Area of the computational grid: 103207.
Searching for the closest normal neighbors to the surfaces.
Storing a mapping from global to local point index.
Compute the surface curvature.
Max K: 227502. Mean K: 205.598. Standard deviation K: 4719.73.
Checking for periodicity.
Computing mesh quality statistics for the dual control volumes.
+--------------------------------------------------------------+
|           Mesh Quality Metric|        Minimum|        Maximum|
+--------------------------------------------------------------+
|    Orthogonality Angle (deg.)|        75.9136|             90|
|     CV Face Area Aspect Ratio|        1.00002|    3.17894e+06|
|           CV Sub-Volume Ratio|              1|         387.07|
+--------------------------------------------------------------+
Finding max control volume width.
Communicating number of neighbors.
Wetted area = 2.0597 m.
Area projection in the x-plane = 0.121116 m, y-plane = 1.00881 m.
Max. coordinate in the x-direction = 1.00898 m, y-direction = 0.0759837 m.
Min. coordinate in the x-direction = 4.86614e-06 m, y-direction = -0.0451345 m.
Computing wall distances.

-------------------- Solver Preprocessing ( Zone 0 ) --------------------
 Warning: There is no restart file (flow.meta).
 Computation will continue without updating metadata parameters.
Incompressible flow: rho_ref, vel_ref, and temp_ref
are based on the initial values, p_ref = rho_ref*vel_ref^2.
Force coefficients computed using initial values.
The reference area for force coeffs. is 1 m^2.
The reference length for force coeffs. is 1.00898 m.
The pressure is decomposed into thermodynamic and dynamic components.
The initial value of the dynamic pressure is 0.
Mach number: 0.0276747, computed using the Bulk modulus.
For external flows, the initial state is imposed at the far-field.
Angle of attack (deg): 12.9998, computed using the initial velocity.
Side slip angle (deg): 0, computed using the initial velocity.
Reynolds number per meter: 594999, computed using initial values.
Reynolds number is a byproduct of inputs only (not used internally).
SI units only. The grid should be dimensional (meters).
No energy equation.

-- Models:
+------------------------------------------------------------------------------+
|          Viscosity Model|        Conductivity Model|              Fluid Model|
+------------------------------------------------------------------------------+
|       CONSTANT_VISCOSITY|          CONSTANT_PRANDTL|         CONSTANT_DENSITY|
+------------------------------------------------------------------------------+
-- Fluid properties:
+------------------------------------------------------------------------------+
|                  Name|    Dim. value|    Ref. value|      Unit|Non-dim. value|
+------------------------------------------------------------------------------+
|             Viscosity|      1.92e-05|        11.424|   N.s/m^2|   1.68067e-06|
+------------------------------------------------------------------------------+
|        Prandtl (Lam.)|             -|             -|         -|          0.72|
|       Prandtl (Turb.)|             -|             -|         -|           0.9|
+------------------------------------------------------------------------------+
|          Bulk Modulus|        142000|             1|        Pa|        142000|
+------------------------------------------------------------------------------+
-- Initial and free-stream conditions:
+------------------------------------------------------------------------------+
|                  Name|    Dim. value|    Ref. value|      Unit|Non-dim. value|
+------------------------------------------------------------------------------+
|      Dynamic Pressure|             0|       108.756|        Pa|             0|
|        Total Pressure|       54.3781|       108.756|        Pa|           0.5|
|               Density|           1.2|           1.2|    kg/m^3|             1|
|            Velocity-X|         9.276|       9.51999|       m/s|      0.974371|
|            Velocity-Y|        2.1415|       9.51999|       m/s|      0.224948|
|    Velocity Magnitude|       9.51999|       9.51999|       m/s|             1|
+------------------------------------------------------------------------------+
|             Viscosity|      1.92e-05|        11.424|   N.s/m^2|   1.68067e-06|
|          Conductivity|             -|       3.59312|   W/m^2.K|             -|
|     Turb. Kin. Energy|       1.35945|       90.6302|   m^2/s^2|         0.015|
|     Spec. Dissipation|       8496.58|       9.51999|       1/s|       892.499|
+------------------------------------------------------------------------------+
|           Mach Number|             -|             -|         -|     0.0276747|
|       Reynolds Number|             -|             -|         -|        594999|
+------------------------------------------------------------------------------+
Initialize Jacobian structure (Navier-Stokes). MG level: 0.
Initialize Jacobian structure (SA model).

------------------- Numerics Preprocessing ( Zone 0 ) -------------------

----------------- Integration Preprocessing ( Zone 0 ) ------------------

------------------- Iteration Preprocessing ( Zone 0 ) ------------------
Euler/Navier-Stokes/RANS fluid iteration.

------------------------------ Begin Solver -----------------------------

Simulation Run using the Single-zone Driver
+-----------------------------------------------------------------------------+
|  Inner_Iter|     Min CFL|     Max CFL|      rms[P]|  Cauchy[CD]|          CD|
+-----------------------------------------------------------------------------+
|           0|  2.4000e+00|  2.4000e+00|   -6.449634|  1.0000e+00|    0.087696|
|          10|  1.4860e+01|  1.4860e+01|   -6.472283|  9.6459e-05|    0.085285|
|          20|  7.6675e+00|  7.6675e+00|   -6.768973|  1.2325e-03|    0.056883|
|          30|  4.7475e+01|  4.7475e+01|   -6.826065|  1.7292e-03|    0.044465|
|          40|  2.4496e+01|  2.4496e+01|   -6.803827|  1.7983e-03|    0.043336|
|          50|  1.2639e+01|  1.2639e+01|   -6.788607|  1.9153e-03|    0.046261|
|          60|  6.5217e+00|  6.5217e+00|   -6.756303|  1.9570e-03|    0.047304|
|          70|  4.0381e+01|  4.0381e+01|   -6.812122|  1.9642e-03|    0.047482|
|          80|  2.0836e+01|  2.0836e+01|   -6.912869|  1.9943e-03|    0.046728|
|          90|  1.0751e+01|  1.0751e+01|   -6.789493|  2.0766e-03|    0.044671|
|         100|  6.6565e+01|  6.6565e+01|   -6.910648|  2.0982e-03|    0.044403|
|         110|  1.3803e+01|  1.3803e+01|   -6.978417|  2.1617e-03|    0.045991|
|         120|  7.1220e+00|  7.1220e+00|   -7.014282|  2.1819e-03|    0.045720|
|         130|  4.4098e+01|  4.4098e+01|   -7.065812|  2.2127e-03|    0.044950|
|         140|  1.3168e+01|  1.3168e+01|   -7.115041|  2.3032e-03|    0.042686|
|         150|  5.6618e+01|  5.6618e+01|   -7.111742|  2.3697e-03|    0.041024|
|         160|  1.6906e+01|  1.6906e+01|   -7.133341|  2.3948e-03|    0.040397|
|         170|  8.7231e+00|  8.7231e+00|   -7.164092|  2.4093e-03|    0.040707|
|         180|  5.4011e+01|  5.4011e+01|   -7.173159|  2.4383e-03|    0.041432|
|         190|  9.3332e+00|  9.3332e+00|   -7.165219|  2.4814e-03|    0.042510|
|         200|  5.7789e+01|  5.7789e+01|   -7.168080|  2.4895e-03|    0.042434|
+-----------------------------------------------------------------------+
|        File Writing Summary       |              Filename             |
+-----------------------------------------------------------------------+
|SU2 binary restart                 |restart_flow_aoa13.dat             |
|Paraview                           |flow_aoa13.vtu                     |
|Paraview surface                   |surface_flow_aoa13.vtu             |
+-----------------------------------------------------------------------+
+-----------------------------------------------------------------------------+
|  Inner_Iter|     Min CFL|     Max CFL|      rms[P]|  Cauchy[CD]|          CD|
+-----------------------------------------------------------------------------+
|         210|  2.9818e+01|  2.9818e+01|   -7.169224|  2.5093e-03|    0.041938|
|         220|  1.5385e+01|  1.5385e+01|   -7.186727|  2.5462e-03|    0.041016|
|         230|  7.9384e+00|  7.9384e+00|   -7.240417|  2.5936e-03|    0.039832|
|         240|  4.9153e+01|  4.9153e+01|   -7.253811|  2.6176e-03|    0.039230|
|         250|  2.5362e+01|  2.5362e+01|   -7.246099|  2.6246e-03|    0.039057|
|         260|  9.0876e+00|  9.0876e+00|   -7.265095|  2.5441e-03|    0.039455|
|         270|  5.6268e+01|  5.6268e+01|   -7.273651|  1.4173e-03|    0.039687|
|         280|  2.9033e+01|  2.9033e+01|   -7.268118|  9.2214e-04|    0.039681|
|         290|  1.4980e+01|  1.4980e+01|   -7.258127|  8.6526e-04|    0.039376|
|         300|  5.3677e+01|  5.3677e+01|   -7.262784|  7.7073e-04|    0.038814|
|         310|  5.3677e+01|  5.3677e+01|   -7.284458|  7.4220e-04|    0.038484|
|         320|  5.3677e+01|  5.3677e+01|   -7.280823|  7.4769e-04|    0.038169|
|         330|  7.7295e+00|  7.7295e+00|   -7.357026|  7.4426e-04|    0.037501|
|         340|  4.7859e+01|  4.7859e+01|   -7.379628|  6.7196e-04|    0.037251|
|         350|  6.8917e+01|  6.8917e+01|   -7.375945|  6.6008e-04|    0.037019|
|         360|  3.5560e+01|  3.5560e+01|   -7.376449|  5.9823e-04|    0.037060|
|         370|  6.1447e+01|  6.1447e+01|   -7.376221|  5.8308e-04|    0.037019|
|         380|  3.1706e+01|  3.1706e+01|   -7.413002|  5.5768e-04|    0.036885|
|         390|  1.6359e+01|  1.6359e+01|   -7.465958|  4.7832e-04|    0.036605|
|         400|  5.8619e+01|  5.8619e+01|   -7.464713|  4.2698e-04|    0.036226|
+-----------------------------------------------------------------------+
|        File Writing Summary       |              Filename             |
+-----------------------------------------------------------------------+
|SU2 binary restart                 |restart_flow_aoa13.dat             |
|Paraview                           |flow_aoa13.vtu                     |
|Paraview surface                   |surface_flow_aoa13.vtu             |
+-----------------------------------------------------------------------+
+-----------------------------------------------------------------------------+
|  Inner_Iter|     Min CFL|     Max CFL|      rms[P]|  Cauchy[CD]|          CD|
+-----------------------------------------------------------------------------+
|         410|  5.8619e+01|  5.8619e+01|   -7.421888|  4.1372e-04|    0.035930|
|         420|  1.4586e+01|  1.4586e+01|   -7.512883|  4.0026e-04|    0.035904|
|         430|  6.2718e+01|  6.2718e+01|   -7.572083|  3.7205e-04|    0.035884|
|         440|  6.2718e+01|  6.2718e+01|   -7.528933|  3.3681e-04|    0.035688|
|         450|  3.2361e+01|  3.2361e+01|   -7.534895|  3.3298e-04|    0.035582|
|         460|  1.6698e+01|  1.6698e+01|   -7.571164|  3.1716e-04|    0.035481|
|         470|  8.6156e+00|  8.6156e+00|   -7.605589|  2.8471e-04|    0.035371|
|         480|  5.3345e+01|  5.3345e+01|   -7.635340|  2.4030e-04|    0.035297|
|         490|  6.4015e+01|  6.4015e+01|   -7.567324|  2.2428e-04|    0.035095|
|         500|  1.9115e+01|  1.9115e+01|   -7.595144|  2.1920e-04|    0.035049|
|         510|  9.8627e+00|  9.8627e+00|   -7.615744|  2.0387e-04|    0.035058|
|         520|  6.1067e+01|  6.1067e+01|   -7.695510|  1.9557e-04|    0.035082|
|         530|  6.1067e+01|  6.1067e+01|   -7.709939|  1.9597e-04|    0.035053|
|         540|  6.1067e+01|  6.1067e+01|   -7.685083|  1.9012e-04|    0.034894|
|         550|  6.1067e+01|  6.1067e+01|   -7.762139|  1.7181e-04|    0.034790|
|         560|  6.1067e+01|  6.1067e+01|   -7.680506|  1.6017e-04|    0.034752|
|         570|  1.5196e+01|  1.5196e+01|   -7.718932|  1.4812e-04|    0.034737|
|         580|  6.5338e+01|  6.5338e+01|   -7.754834|  1.2154e-04|    0.034739|
|         590|  6.5338e+01|  6.5338e+01|   -7.701278|  1.1196e-04|    0.034740|
|         600|  6.5338e+01|  6.5338e+01|   -7.714301|  1.0484e-04|    0.034676|
+-----------------------------------------------------------------------+
|        File Writing Summary       |              Filename             |
+-----------------------------------------------------------------------+
|SU2 binary restart                 |restart_flow_aoa13.dat             |
|Paraview                           |flow_aoa13.vtu                     |
|Paraview surface                   |surface_flow_aoa13.vtu             |
+-----------------------------------------------------------------------+
+-----------------------------------------------------------------------------+
|  Inner_Iter|     Min CFL|     Max CFL|      rms[P]|  Cauchy[CD]|          CD|
+-----------------------------------------------------------------------------+
|         610|  6.5338e+01|  6.5338e+01|   -7.796442|  1.0699e-04|    0.034581|
|         620|  6.5338e+01|  6.5338e+01|   -7.774962|  1.0422e-04|    0.034523|
|         630|  6.5338e+01|  6.5338e+01|   -7.846790|  9.9503e-05|    0.034507|
|         640|  6.5338e+01|  6.5338e+01|   -7.868216|  8.8362e-05|    0.034506|
|         650|  6.5338e+01|  6.5338e+01|   -7.878492|  7.4181e-05|    0.034481|
|         660|  6.5338e+01|  6.5338e+01|   -7.869141|  6.4821e-05|    0.034420|
|         670|  1.6258e+01|  1.6258e+01|   -7.931228|  6.5170e-05|    0.034384|
|         680|  8.3889e+00|  8.3889e+00|   -7.882573|  6.5171e-05|    0.034364|
|         690|  5.1942e+01|  5.1942e+01|   -7.944305|  5.7528e-05|    0.034359|
|         700|  2.6801e+01|  2.6801e+01|   -7.999615|  5.3327e-05|    0.034360|
|         710|  1.3829e+01|  1.3829e+01|   -8.037060|  4.9681e-05|    0.034370|
|         720|  7.1353e+00|  7.1353e+00|   -8.023505|  4.5873e-05|    0.034385|
|         730|  4.4180e+01|  4.4180e+01|   -8.050073|  4.3277e-05|    0.034394|
|         740|  2.2796e+01|  2.2796e+01|   -8.076127|  3.5633e-05|    0.034404|
|         750|  5.6723e+01|  5.6723e+01|   -8.097869|  3.4190e-05|    0.034415|
|         760|  5.6723e+01|  5.6723e+01|   -8.089254|  3.3762e-05|    0.034411|
|         770|  5.6723e+01|  5.6723e+01|   -8.035791|  3.3067e-05|    0.034405|
|         780|  5.6723e+01|  5.6723e+01|   -8.048081|  3.1739e-05|    0.034421|
|         790|  5.6723e+01|  5.6723e+01|   -8.061009|  2.7143e-05|    0.034465|
|         800|  5.6723e+01|  5.6723e+01|   -8.064862|  2.5203e-05|    0.034521|
+-----------------------------------------------------------------------+
|        File Writing Summary       |              Filename             |
+-----------------------------------------------------------------------+
|SU2 binary restart                 |restart_flow_aoa13.dat             |
|Paraview                           |flow_aoa13.vtu                     |
|Paraview surface                   |surface_flow_aoa13.vtu             |
+-----------------------------------------------------------------------+
+-----------------------------------------------------------------------------+
|  Inner_Iter|     Min CFL|     Max CFL|      rms[P]|  Cauchy[CD]|          CD|
+-----------------------------------------------------------------------------+
|         810|  5.6723e+01|  5.6723e+01|   -8.077773|  2.5569e-05|    0.034568|
|         820|  5.6723e+01|  5.6723e+01|   -8.063696|  2.6337e-05|    0.034602|
|         830|  5.6723e+01|  5.6723e+01|   -8.066280|  2.7346e-05|    0.034631|
|         840|  5.6723e+01|  5.6723e+01|   -8.088693|  2.8419e-05|    0.034667|
|         850|  5.6723e+01|  5.6723e+01|   -8.101076|  2.7758e-05|    0.034715|
|         860|  5.6723e+01|  5.6723e+01|   -8.117135|  2.5926e-05|    0.034764|
|         870|  5.6723e+01|  5.6723e+01|   -8.121244|  2.5214e-05|    0.034804|
|         880|  5.6723e+01|  5.6723e+01|   -8.117139|  2.5617e-05|    0.034831|
|         890|  5.6723e+01|  5.6723e+01|   -8.124009|  2.6274e-05|    0.034849|
|         900|  5.6723e+01|  5.6723e+01|   -8.127885|  2.5948e-05|    0.034865|
|         910|  5.6723e+01|  5.6723e+01|   -8.131460|  2.4139e-05|    0.034881|
|         920|  5.6723e+01|  5.6723e+01|   -8.135664|  2.3190e-05|    0.034893|
|         930|  5.6723e+01|  5.6723e+01|   -8.136743|  2.2535e-05|    0.034895|
|         940|  5.6723e+01|  5.6723e+01|   -8.143954|  2.2646e-05|    0.034888|
|         950|  5.6723e+01|  5.6723e+01|   -8.152512|  2.3247e-05|    0.034872|
|         960|  5.6723e+01|  5.6723e+01|   -8.157974|  2.3675e-05|    0.034851|
|         970|  5.6723e+01|  5.6723e+01|   -8.163677|  2.3979e-05|    0.034829|
|         980|  5.6723e+01|  5.6723e+01|   -8.169590|  2.4611e-05|    0.034804|
|         990|  5.6723e+01|  5.6723e+01|   -8.178152|  2.5402e-05|    0.034774|
|        1000|  5.6723e+01|  5.6723e+01|   -8.187733|  2.6433e-05|    0.034737|
+-----------------------------------------------------------------------+
|        File Writing Summary       |              Filename             |
+-----------------------------------------------------------------------+
|SU2 binary restart                 |restart_flow_aoa13.dat             |
|Paraview                           |flow_aoa13.vtu                     |
|Paraview surface                   |surface_flow_aoa13.vtu             |
+-----------------------------------------------------------------------+
+-----------------------------------------------------------------------------+
|  Inner_Iter|     Min CFL|     Max CFL|      rms[P]|  Cauchy[CD]|          CD|
+-----------------------------------------------------------------------------+
|        1010|  5.6723e+01|  5.6723e+01|   -8.195701|  2.7913e-05|    0.034696|
|        1020|  5.6723e+01|  5.6723e+01|   -8.204595|  2.9439e-05|    0.034651|
|        1030|  5.6723e+01|  5.6723e+01|   -8.214831|  3.0585e-05|    0.034606|
|        1040|  5.6723e+01|  5.6723e+01|   -8.223996|  3.0622e-05|    0.034561|
|        1050|  5.6723e+01|  5.6723e+01|   -8.228602|  3.0276e-05|    0.034514|
|        1060|  1.6937e+01|  1.6937e+01|   -8.252594|  2.9381e-05|    0.034489|
|        1070|  8.7393e+00|  8.7393e+00|   -8.209120|  2.9076e-05|    0.034463|
|        1080|  5.4112e+01|  5.4112e+01|   -8.245227|  2.8771e-05|    0.034442|
|        1090|  5.4112e+01|  5.4112e+01|   -8.240289|  2.9409e-05|    0.034389|
|        1100|  5.4112e+01|  5.4112e+01|   -8.251995|  2.9624e-05|    0.034336|
|        1110|  5.4112e+01|  5.4112e+01|   -8.265029|  2.9786e-05|    0.034283|
|        1120|  5.4112e+01|  5.4112e+01|   -8.278593|  3.0330e-05|    0.034229|
|        1130|  5.4112e+01|  5.4112e+01|   -8.288935|  3.1460e-05|    0.034175|
|        1140|  5.4112e+01|  5.4112e+01|   -8.298407|  3.3020e-05|    0.034118|
|        1150|  5.4112e+01|  5.4112e+01|   -8.308443|  3.4724e-05|    0.034059|
|        1160|  5.4112e+01|  5.4112e+01|   -8.318616|  3.6440e-05|    0.034000|
|        1170|  5.4112e+01|  5.4112e+01|   -8.326983|  3.8320e-05|    0.033941|
|        1180|  7.7921e+00|  7.7921e+00|   -8.328414|  4.0399e-05|    0.033885|
|        1190|  4.8246e+01|  4.8246e+01|   -8.344045|  4.0972e-05|    0.033863|
|        1200|  2.4894e+01|  2.4894e+01|   -8.348751|  4.1210e-05|    0.033841|
+-----------------------------------------------------------------------+
|        File Writing Summary       |              Filename             |
+-----------------------------------------------------------------------+
|SU2 binary restart                 |restart_flow_aoa13.dat             |
|Paraview                           |flow_aoa13.vtu                     |
|Paraview surface                   |surface_flow_aoa13.vtu             |
+-----------------------------------------------------------------------+
+-----------------------------------------------------------------------------+
|  Inner_Iter|     Min CFL|     Max CFL|      rms[P]|  Cauchy[CD]|          CD|
+-----------------------------------------------------------------------------+
|        1210|  1.2845e+01|  1.2845e+01|   -8.341526|  4.1639e-05|    0.033810|
|        1220|  5.5230e+01|  5.5230e+01|   -8.338051|  4.2189e-05|    0.033774|
|        1230|  5.5230e+01|  5.5230e+01|   -8.330635|  4.3704e-05|    0.033711|
|        1240|  5.5230e+01|  5.5230e+01|   -8.329095|  4.5035e-05|    0.033648|
|        1250|  5.5230e+01|  5.5230e+01|   -8.327865|  4.6127e-05|    0.033584|
|        1260|  5.5230e+01|  5.5230e+01|   -8.327960|  4.6942e-05|    0.033522|
|        1270|  5.5230e+01|  5.5230e+01|   -8.328361|  4.7603e-05|    0.033461|
|        1280|  5.5230e+01|  5.5230e+01|   -8.330189|  4.8259e-05|    0.033400|
|        1290|  5.5230e+01|  5.5230e+01|   -8.333880|  4.8902e-05|    0.033339|
|        1300|  5.5230e+01|  5.5230e+01|   -8.339378|  4.9433e-05|    0.033278|
|        1310|  5.5230e+01|  5.5230e+01|   -8.346595|  5.0818e-05|    0.033218|
|        1320|  5.5230e+01|  5.5230e+01|   -8.355418|  5.2127e-05|    0.033160|
|        1330|  5.5230e+01|  5.5230e+01|   -8.365380|  5.3572e-05|    0.033102|
|        1340|  5.5230e+01|  5.5230e+01|   -8.376707|  5.3739e-05|    0.033046|
|        1350|  5.5230e+01|  5.5230e+01|   -8.390815|  5.3892e-05|    0.032989|
|        1360|  5.5230e+01|  5.5230e+01|   -8.408832|  5.3990e-05|    0.032933|
|        1370|  5.5230e+01|  5.5230e+01|   -8.430470|  5.4035e-05|    0.032879|
|        1380|  7.9532e+00|  7.9532e+00|   -8.412020|  5.3616e-05|    0.032834|
|        1390|  4.9244e+01|  4.9244e+01|   -8.487951|  5.2134e-05|    0.032814|
|        1400|  2.5409e+01|  2.5409e+01|   -8.506082|  5.0573e-05|    0.032794|
+-----------------------------------------------------------------------+
|        File Writing Summary       |              Filename             |
+-----------------------------------------------------------------------+
|SU2 binary restart                 |restart_flow_aoa13.dat             |
|Paraview                           |flow_aoa13.vtu                     |
|Paraview surface                   |surface_flow_aoa13.vtu             |
+-----------------------------------------------------------------------+
+-----------------------------------------------------------------------------+
|  Inner_Iter|     Min CFL|     Max CFL|      rms[P]|  Cauchy[CD]|          CD|
+-----------------------------------------------------------------------------+
|        1410|  5.2688e+01|  5.2688e+01|   -8.502027|  4.9934e-05|    0.032751|
|        1420|  5.2688e+01|  5.2688e+01|   -8.535673|  4.9585e-05|    0.032701|
|        1430|  5.2688e+01|  5.2688e+01|   -8.564342|  4.9373e-05|    0.032651|
|        1440|  5.2688e+01|  5.2688e+01|   -8.591998|  5.0504e-05|    0.032601|
|        1450|  5.2688e+01|  5.2688e+01|   -8.614979|  5.1619e-05|    0.032551|
|        1460|  5.2688e+01|  5.2688e+01|   -8.628774|  5.2334e-05|    0.032502|
|        1470|  5.2688e+01|  5.2688e+01|   -8.633339|  5.2834e-05|    0.032453|
|        1480|  5.2688e+01|  5.2688e+01|   -8.629799|  5.2253e-05|    0.032405|
|        1490|  5.2688e+01|  5.2688e+01|   -8.620859|  5.1648e-05|    0.032357|
|        1500|  5.2688e+01|  5.2688e+01|   -8.608473|  5.1031e-05|    0.032308|
|        1510|  5.2688e+01|  5.2688e+01|   -8.594746|  5.0463e-05|    0.032260|
|        1520|  5.2688e+01|  5.2688e+01|   -8.581702|  4.9922e-05|    0.032213|
|        1530|  5.2688e+01|  5.2688e+01|   -8.570936|  4.9356e-05|    0.032166|
|        1540|  7.5870e+00|  7.5870e+00|   -8.539996|  4.8450e-05|    0.032127|
|        1550|  4.6977e+01|  4.6977e+01|   -8.576206|  4.6735e-05|    0.032110|
|        1560|  2.4239e+01|  2.4239e+01|   -8.578246|  4.5037e-05|    0.032093|
|        1570|  5.0262e+01|  5.0262e+01|   -8.562065|  4.4195e-05|    0.032055|
|        1580|  5.0262e+01|  5.0262e+01|   -8.558102|  4.3644e-05|    0.032011|
|        1590|  5.0262e+01|  5.0262e+01|   -8.558856|  4.3099e-05|    0.031968|
|        1600|  5.0262e+01|  5.0262e+01|   -8.559864|  4.2584e-05|    0.031924|
+-----------------------------------------------------------------------+
|        File Writing Summary       |              Filename             |
+-----------------------------------------------------------------------+
|SU2 binary restart                 |restart_flow_aoa13.dat             |
|Paraview                           |flow_aoa13.vtu                     |
|Paraview surface                   |surface_flow_aoa13.vtu             |
+-----------------------------------------------------------------------+
+-----------------------------------------------------------------------------+
|  Inner_Iter|     Min CFL|     Max CFL|      rms[P]|  Cauchy[CD]|          CD|
+-----------------------------------------------------------------------------+
|        1610|  5.0262e+01|  5.0262e+01|   -8.563849|  4.2085e-05|    0.031881|
|        1620|  5.0262e+01|  5.0262e+01|   -8.568574|  4.1590e-05|    0.031839|
|        1630|  5.0262e+01|  5.0262e+01|   -8.575429|  4.1487e-05|    0.031797|
|        1640|  5.0262e+01|  5.0262e+01|   -8.583874|  4.2348e-05|    0.031755|
|        1650|  5.0262e+01|  5.0262e+01|   -8.593420|  4.3195e-05|    0.031714|
|        1660|  5.0262e+01|  5.0262e+01|   -8.603787|  4.3105e-05|    0.031674|
|        1670|  7.2377e+00|  7.2377e+00|   -8.592187|  4.2437e-05|    0.031640|
|        1680|  4.4814e+01|  4.4814e+01|   -8.631249|  4.1048e-05|    0.031625|
|        1690|  2.3123e+01|  2.3123e+01|   -8.635901|  3.9626e-05|    0.031610|
|        1700|  4.7948e+01|  4.7948e+01|   -8.635297|  3.8925e-05|    0.031578|
|        1710|  4.7948e+01|  4.7948e+01|   -8.650330|  3.8474e-05|    0.031540|
|        1720|  4.7948e+01|  4.7948e+01|   -8.663532|  3.8008e-05|    0.031503|
|        1730|  4.7948e+01|  4.7948e+01|   -8.675925|  3.7561e-05|    0.031466|
|        1740|  4.7948e+01|  4.7948e+01|   -8.691213|  3.7128e-05|    0.031428|
|        1750|  4.7948e+01|  4.7948e+01|   -8.705774|  3.6675e-05|    0.031392|
|        1760|  4.7948e+01|  4.7948e+01|   -8.720766|  3.6200e-05|    0.031355|
|        1770|  2.4740e+01|  2.4740e+01|   -8.744372|  3.4746e-05|    0.031344|
|        1780|  1.2765e+01|  1.2765e+01|   -8.750270|  3.3527e-05|    0.031328|
|        1790|  4.5741e+01|  4.5741e+01|   -8.744641|  3.2873e-05|    0.031305|
|        1800|  4.5741e+01|  4.5741e+01|   -8.758217|  3.3508e-05|    0.031272|
+-----------------------------------------------------------------------+
|        File Writing Summary       |              Filename             |
+-----------------------------------------------------------------------+
|SU2 binary restart                 |restart_flow_aoa13.dat             |
|Paraview                           |flow_aoa13.vtu                     |
|Paraview surface                   |surface_flow_aoa13.vtu             |
+-----------------------------------------------------------------------+
+-----------------------------------------------------------------------------+
|  Inner_Iter|     Min CFL|     Max CFL|      rms[P]|  Cauchy[CD]|          CD|
+-----------------------------------------------------------------------------+
|        1810|  4.5741e+01|  4.5741e+01|   -8.771527|  3.4147e-05|    0.031239|
|        1820|  4.5741e+01|  4.5741e+01|   -8.781159|  3.3981e-05|    0.031205|
|        1830|  4.5741e+01|  4.5741e+01|   -8.792105|  3.3572e-05|    0.031172|
|        1840|  4.5741e+01|  4.5741e+01|   -8.800798|  3.3168e-05|    0.031139|
|        1850|  4.5741e+01|  4.5741e+01|   -8.807394|  3.2721e-05|    0.031106|
|        1860|  4.5741e+01|  4.5741e+01|   -8.811744|  3.2261e-05|    0.031075|
|        1870|  4.5741e+01|  4.5741e+01|   -8.814092|  3.1826e-05|    0.031043|
|        1880|  4.5741e+01|  4.5741e+01|   -8.814680|  3.1407e-05|    0.031012|
|        1890|  4.5741e+01|  4.5741e+01|   -8.813202|  3.0996e-05|    0.030981|
|        1900|  4.5741e+01|  4.5741e+01|   -8.810301|  3.0595e-05|    0.030950|
|        1910|  4.5741e+01|  4.5741e+01|   -8.806250|  3.0192e-05|    0.030919|
|        1920|  4.5741e+01|  4.5741e+01|   -8.801506|  3.0069e-05|    0.030889|
|        1930|  4.5741e+01|  4.5741e+01|   -8.796650|  3.0653e-05|    0.030859|
|        1940|  4.5741e+01|  4.5741e+01|   -8.792481|  3.1239e-05|    0.030829|
|        1950|  4.5741e+01|  4.5741e+01|   -8.789590|  3.1122e-05|    0.030800|
|        1960|  4.5741e+01|  4.5741e+01|   -8.788022|  3.0790e-05|    0.030770|
|        1970|  4.5741e+01|  4.5741e+01|   -8.787654|  3.0473e-05|    0.030741|
|        1980|  4.5741e+01|  4.5741e+01|   -8.788409|  3.0131e-05|    0.030713|
|        1990|  4.5741e+01|  4.5741e+01|   -8.790435|  2.9774e-05|    0.030684|
|        2000|  5.4889e+00|  5.4889e+00|   -8.794029|  2.9328e-05|    0.030658|
+-----------------------------------------------------------------------+
|        File Writing Summary       |              Filename             |
+-----------------------------------------------------------------------+
|SU2 binary restart                 |restart_flow_aoa13.dat             |
|Paraview                           |flow_aoa13.vtu                     |
|Paraview surface                   |surface_flow_aoa13.vtu             |
+-----------------------------------------------------------------------+
+-----------------------------------------------------------------------------+
|  Inner_Iter|     Min CFL|     Max CFL|      rms[P]|  Cauchy[CD]|          CD|
+-----------------------------------------------------------------------------+
|        2010|  3.3986e+01|  3.3986e+01|   -8.809312|  2.8241e-05|    0.030649|
|        2020|  1.7536e+01|  1.7536e+01|   -8.812486|  2.8252e-05|    0.030638|
|        2030|  4.3635e+01|  4.3635e+01|   -8.806056|  2.8425e-05|    0.030617|
|        2040|  4.3635e+01|  4.3635e+01|   -8.812165|  2.8597e-05|    0.030591|
|        2050|  4.3635e+01|  4.3635e+01|   -8.819892|  2.8306e-05|    0.030564|
|        2060|  4.3635e+01|  4.3635e+01|   -8.826213|  2.8024e-05|    0.030538|
|        2070|  4.3635e+01|  4.3635e+01|   -8.833468|  2.7739e-05|    0.030512|
|        2080|  4.3635e+01|  4.3635e+01|   -8.840939|  2.7444e-05|    0.030486|
|        2090|  4.3635e+01|  4.3635e+01|   -8.847550|  2.7146e-05|    0.030460|
|        2100|  4.3635e+01|  4.3635e+01|   -8.853574|  2.6868e-05|    0.030435|
|        2110|  4.3635e+01|  4.3635e+01|   -8.859088|  2.6608e-05|    0.030409|
|        2120|  4.3635e+01|  4.3635e+01|   -8.863978|  2.6351e-05|    0.030384|
|        2130|  4.3635e+01|  4.3635e+01|   -8.867972|  2.6096e-05|    0.030359|
|        2140|  4.3635e+01|  4.3635e+01|   -8.870909|  2.5846e-05|    0.030334|
|        2150|  4.3635e+01|  4.3635e+01|   -8.872874|  2.5600e-05|    0.030310|
|        2160|  4.3635e+01|  4.3635e+01|   -8.874015|  2.5360e-05|    0.030285|
|        2170|  4.3635e+01|  4.3635e+01|   -8.874531|  2.5126e-05|    0.030260|
|        2180|  4.3635e+01|  4.3635e+01|   -8.874706|  2.4898e-05|    0.030236|
|        2190|  1.5635e+01|  1.5635e+01|   -8.889065|  2.4131e-05|    0.030226|
|        2200|  8.0674e+00|  8.0674e+00|   -8.856895|  2.3446e-05|    0.030214|
+-----------------------------------------------------------------------+
|        File Writing Summary       |              Filename             |
+-----------------------------------------------------------------------+
|SU2 binary restart                 |restart_flow_aoa13.dat             |
|Paraview                           |flow_aoa13.vtu                     |
|Paraview surface                   |surface_flow_aoa13.vtu             |
+-----------------------------------------------------------------------+
+-----------------------------------------------------------------------------+
|  Inner_Iter|     Min CFL|     Max CFL|      rms[P]|  Cauchy[CD]|          CD|
+-----------------------------------------------------------------------------+
|        2210|  4.1626e+01|  4.1626e+01|   -8.883677|  2.2734e-05|    0.030202|
|        2220|  4.1626e+01|  4.1626e+01|   -8.876957|  2.2471e-05|    0.030180|
|        2230|  4.1626e+01|  4.1626e+01|   -8.876560|  2.2232e-05|    0.030157|
|        2240|  4.1626e+01|  4.1626e+01|   -8.875910|  2.1993e-05|    0.030134|
|        2250|  4.1626e+01|  4.1626e+01|   -8.874905|  2.1864e-05|    0.030112|
|        2260|  4.1626e+01|  4.1626e+01|   -8.874714|  2.2407e-05|    0.030089|
|        2270|  4.1626e+01|  4.1626e+01|   -8.874242|  2.2845e-05|    0.030067|
|        2280|  4.1626e+01|  4.1626e+01|   -8.873790|  2.2894e-05|    0.030045|
|        2290|  4.1626e+01|  4.1626e+01|   -8.873681|  2.2716e-05|    0.030023|
|        2300|  4.1626e+01|  4.1626e+01|   -8.873941|  2.2544e-05|    0.030001|
|        2310|  4.1626e+01|  4.1626e+01|   -8.874451|  2.2368e-05|    0.029979|
|        2320|  4.1626e+01|  4.1626e+01|   -8.875047|  2.2186e-05|    0.029957|
|        2330|  4.1626e+01|  4.1626e+01|   -8.875721|  2.2006e-05|    0.029936|
|        2340|  4.1626e+01|  4.1626e+01|   -8.876561|  2.1839e-05|    0.029914|
|        2350|  4.1626e+01|  4.1626e+01|   -8.877646|  2.1680e-05|    0.029893|
|        2360|  4.1626e+01|  4.1626e+01|   -8.878908|  2.1522e-05|    0.029871|
|        2370|  4.1626e+01|  4.1626e+01|   -8.880256|  2.1364e-05|    0.029850|
|        2380|  4.1626e+01|  4.1626e+01|   -8.881710|  2.1205e-05|    0.029829|
|        2390|  4.1626e+01|  4.1626e+01|   -8.883252|  2.1045e-05|    0.029808|
|        2400|  4.1626e+01|  4.1626e+01|   -8.884828|  2.0888e-05|    0.029787|
+-----------------------------------------------------------------------+
|        File Writing Summary       |              Filename             |
+-----------------------------------------------------------------------+
|SU2 binary restart                 |restart_flow_aoa13.dat             |
|Paraview                           |flow_aoa13.vtu                     |
|Paraview surface                   |surface_flow_aoa13.vtu             |
+-----------------------------------------------------------------------+
+-----------------------------------------------------------------------------+
|  Inner_Iter|     Min CFL|     Max CFL|      rms[P]|  Cauchy[CD]|          CD|
+-----------------------------------------------------------------------------+
|        2410|  4.1626e+01|  4.1626e+01|   -8.886423|  2.0736e-05|    0.029767|
|        2420|  4.1626e+01|  4.1626e+01|   -8.888084|  2.0584e-05|    0.029746|
|        2430|  4.1626e+01|  4.1626e+01|   -8.889786|  2.0436e-05|    0.029725|
|        2440|  4.1626e+01|  4.1626e+01|   -8.891476|  2.0838e-05|    0.029705|
|        2450|  4.1626e+01|  4.1626e+01|   -8.893180|  2.1163e-05|    0.029684|
|        2460|  4.1626e+01|  4.1626e+01|   -8.894964|  2.1514e-05|    0.029664|
|        2470|  4.1626e+01|  4.1626e+01|   -8.896878|  2.1421e-05|    0.029644|
|        2480|  4.1626e+01|  4.1626e+01|   -8.898883|  2.1313e-05|    0.029624|
|        2490|  4.1626e+01|  4.1626e+01|   -8.900902|  2.1214e-05|    0.029604|
|        2500|  4.1626e+01|  4.1626e+01|   -8.902856|  2.1107e-05|    0.029584|
|        2510|  4.1626e+01|  4.1626e+01|   -8.904754|  2.0994e-05|    0.029564|
|        2520|  4.1626e+01|  4.1626e+01|   -8.906623|  2.0880e-05|    0.029545|
|        2530|  4.1626e+01|  4.1626e+01|   -8.908546|  2.0774e-05|    0.029525|
|        2540|  4.1626e+01|  4.1626e+01|   -8.910531|  2.0673e-05|    0.029506|
|        2550|  4.1626e+01|  4.1626e+01|   -8.912597|  2.0571e-05|    0.029487|
|        2560|  4.1626e+01|  4.1626e+01|   -8.914672|  2.0470e-05|    0.029467|
|        2570|  4.1626e+01|  4.1626e+01|   -8.916717|  2.0367e-05|    0.029448|
|        2580|  4.1626e+01|  4.1626e+01|   -8.918701|  2.0263e-05|    0.029429|
|        2590|  4.1626e+01|  4.1626e+01|   -8.920679|  2.0158e-05|    0.029410|
|        2600|  4.1626e+01|  4.1626e+01|   -8.922736|  2.0052e-05|    0.029391|
+-----------------------------------------------------------------------+
|        File Writing Summary       |              Filename             |
+-----------------------------------------------------------------------+
|SU2 binary restart                 |restart_flow_aoa13.dat             |
|Paraview                           |flow_aoa13.vtu                     |
|Paraview surface                   |surface_flow_aoa13.vtu             |
+-----------------------------------------------------------------------+
+-----------------------------------------------------------------------------+
|  Inner_Iter|     Min CFL|     Max CFL|      rms[P]|  Cauchy[CD]|          CD|
+-----------------------------------------------------------------------------+
|        2610|  4.1626e+01|  4.1626e+01|   -8.924964|  1.9946e-05|    0.029373|
|        2620|  4.1626e+01|  4.1626e+01|   -8.927389|  1.9843e-05|    0.029354|
|        2630|  4.1626e+01|  4.1626e+01|   -8.930002|  1.9742e-05|    0.029336|
|        2640|  4.1626e+01|  4.1626e+01|   -8.932730|  1.9640e-05|    0.029317|
|        2650|  4.1626e+01|  4.1626e+01|   -8.935568|  1.9534e-05|    0.029299|
|        2660|  4.1626e+01|  4.1626e+01|   -8.938549|  1.9428e-05|    0.029281|
|        2670|  4.1626e+01|  4.1626e+01|   -8.941698|  1.9323e-05|    0.029263|
|        2680|  4.1626e+01|  4.1626e+01|   -8.945034|  1.9220e-05|    0.029245|
|        2690|  4.1626e+01|  4.1626e+01|   -8.948510|  1.9117e-05|    0.029227|
|        2700|  4.1626e+01|  4.1626e+01|   -8.952048|  1.9013e-05|    0.029209|
|        2710|  4.1626e+01|  4.1626e+01|   -8.955548|  1.8908e-05|    0.029191|
|        2720|  4.1626e+01|  4.1626e+01|   -8.958983|  1.8804e-05|    0.029174|
|        2730|  4.1626e+01|  4.1626e+01|   -8.962299|  1.8700e-05|    0.029156|
|        2740|  4.1626e+01|  4.1626e+01|   -8.965464|  1.8595e-05|    0.029139|
|        2750|  4.1626e+01|  4.1626e+01|   -8.968454|  1.8491e-05|    0.029122|
|        2760|  4.1626e+01|  4.1626e+01|   -8.971267|  1.8389e-05|    0.029105|
|        2770|  4.1626e+01|  4.1626e+01|   -8.973880|  1.8286e-05|    0.029088|
|        2780|  4.1626e+01|  4.1626e+01|   -8.976276|  1.8184e-05|    0.029071|
|        2790|  4.1626e+01|  4.1626e+01|   -8.978416|  1.8080e-05|    0.029054|
|        2800|  4.1626e+01|  4.1626e+01|   -8.980279|  1.7977e-05|    0.029037|
+-----------------------------------------------------------------------+
|        File Writing Summary       |              Filename             |
+-----------------------------------------------------------------------+
|SU2 binary restart                 |restart_flow_aoa13.dat             |
|Paraview                           |flow_aoa13.vtu                     |
|Paraview surface                   |surface_flow_aoa13.vtu             |
+-----------------------------------------------------------------------+
+-----------------------------------------------------------------------------+
|  Inner_Iter|     Min CFL|     Max CFL|      rms[P]|  Cauchy[CD]|          CD|
+-----------------------------------------------------------------------------+
|        2810|  4.1626e+01|  4.1626e+01|   -8.981904|  1.7874e-05|    0.029020|
|        2820|  4.1626e+01|  4.1626e+01|   -8.983334|  1.7772e-05|    0.029004|
|        2830|  4.1626e+01|  4.1626e+01|   -8.984617|  1.7669e-05|    0.028987|
|        2840|  4.1626e+01|  4.1626e+01|   -8.985793|  1.7567e-05|    0.028971|
|        2850|  4.1626e+01|  4.1626e+01|   -8.986893|  1.7465e-05|    0.028955|
|        2860|  4.1626e+01|  4.1626e+01|   -8.987929|  1.7364e-05|    0.028939|
|        2870|  4.1626e+01|  4.1626e+01|   -8.988919|  1.7262e-05|    0.028923|
|        2880|  4.1626e+01|  4.1626e+01|   -8.989912|  1.7161e-05|    0.028907|
|        2890|  4.1626e+01|  4.1626e+01|   -8.990922|  1.7061e-05|    0.028891|
|        2900|  4.1626e+01|  4.1626e+01|   -8.991984|  1.6961e-05|    0.028875|
|        2910|  4.1626e+01|  4.1626e+01|   -8.993125|  1.6862e-05|    0.028859|
|        2920|  4.1626e+01|  4.1626e+01|   -8.994355|  1.6763e-05|    0.028844|
|        2930|  4.1626e+01|  4.1626e+01|   -8.995696|  1.6664e-05|    0.028828|
|        2940|  4.1626e+01|  4.1626e+01|   -8.997173|  1.6567e-05|    0.028813|
|        2950|  4.1626e+01|  4.1626e+01|   -8.998775|  1.6470e-05|    0.028797|
|        2960|  4.1626e+01|  4.1626e+01|   -9.000511|  1.6374e-05|    0.028782|
|        2970|  4.1626e+01|  4.1626e+01|   -9.002370|  1.6278e-05|    0.028767|
|        2980|  4.1626e+01|  4.1626e+01|   -9.003691|  1.6183e-05|    0.028752|
|        2990|  4.1626e+01|  4.1626e+01|   -9.005431|  1.6089e-05|    0.028737|
|        3000|  4.1626e+01|  4.1626e+01|   -9.007287|  1.5995e-05|    0.028722|
+-----------------------------------------------------------------------+
|        File Writing Summary       |              Filename             |
+-----------------------------------------------------------------------+
|SU2 binary restart                 |restart_flow_aoa13.dat             |
|Paraview                           |flow_aoa13.vtu                     |
|Paraview surface                   |surface_flow_aoa13.vtu             |
+-----------------------------------------------------------------------+
+-----------------------------------------------------------------------------+
|  Inner_Iter|     Min CFL|     Max CFL|      rms[P]|  Cauchy[CD]|          CD|
+-----------------------------------------------------------------------------+
|        3010|  4.1626e+01|  4.1626e+01|   -9.009371|  1.5902e-05|    0.028707|
|        3020|  4.1626e+01|  4.1626e+01|   -9.011716|  1.5809e-05|    0.028692|
|        3030|  4.1626e+01|  4.1626e+01|   -9.014205|  1.5718e-05|    0.028678|
|        3040|  4.1626e+01|  4.1626e+01|   -9.016699|  1.5627e-05|    0.028663|
|        3050|  4.1626e+01|  4.1626e+01|   -9.019054|  1.5537e-05|    0.028649|
|        3060|  4.1626e+01|  4.1626e+01|   -9.021210|  1.5448e-05|    0.028634|
|        3070|  4.1626e+01|  4.1626e+01|   -9.023216|  1.5359e-05|    0.028620|
|        3080|  4.1626e+01|  4.1626e+01|   -9.025157|  1.5271e-05|    0.028606|
|        3090|  4.1626e+01|  4.1626e+01|   -9.027096|  1.5184e-05|    0.028591|
|        3100|  4.1626e+01|  4.1626e+01|   -9.029069|  1.5097e-05|    0.028577|
|        3110|  4.1626e+01|  4.1626e+01|   -9.031069|  1.5011e-05|    0.028563|
|        3120|  4.1626e+01|  4.1626e+01|   -9.033073|  1.4926e-05|    0.028549|
|        3130|  4.1626e+01|  4.1626e+01|   -9.035067|  1.4842e-05|    0.028536|
|        3140|  4.1626e+01|  4.1626e+01|   -9.037043|  1.4758e-05|    0.028522|
|        3150|  4.1626e+01|  4.1626e+01|   -9.039014|  1.4674e-05|    0.028508|
|        3160|  4.1626e+01|  4.1626e+01|   -9.041011|  1.4591e-05|    0.028495|
|        3170|  4.1626e+01|  4.1626e+01|   -9.043075|  1.4508e-05|    0.028481|
|        3180|  4.1626e+01|  4.1626e+01|   -9.045226|  1.4426e-05|    0.028468|
|        3190|  4.1626e+01|  4.1626e+01|   -9.047457|  1.4344e-05|    0.028454|
|        3200|  4.1626e+01|  4.1626e+01|   -9.049749|  1.4263e-05|    0.028441|
+-----------------------------------------------------------------------+
|        File Writing Summary       |              Filename             |
+-----------------------------------------------------------------------+
|SU2 binary restart                 |restart_flow_aoa13.dat             |
|Paraview                           |flow_aoa13.vtu                     |
|Paraview surface                   |surface_flow_aoa13.vtu             |
+-----------------------------------------------------------------------+
+-----------------------------------------------------------------------------+
|  Inner_Iter|     Min CFL|     Max CFL|      rms[P]|  Cauchy[CD]|          CD|
+-----------------------------------------------------------------------------+
|        3210|  4.1626e+01|  4.1626e+01|   -9.052076|  1.4182e-05|    0.028428|
|        3220|  4.1626e+01|  4.1626e+01|   -9.054443|  1.4101e-05|    0.028414|
|        3230|  4.1626e+01|  4.1626e+01|   -9.056856|  1.4021e-05|    0.028401|
|        3240|  4.1626e+01|  4.1626e+01|   -9.059326|  1.3940e-05|    0.028388|
|        3250|  4.1626e+01|  4.1626e+01|   -9.061866|  1.3860e-05|    0.028375|
|        3260|  4.1626e+01|  4.1626e+01|   -9.064490|  1.3780e-05|    0.028363|
|        3270|  4.1626e+01|  4.1626e+01|   -9.067201|  1.3700e-05|    0.028350|
|        3280|  4.1626e+01|  4.1626e+01|   -9.069993|  1.3620e-05|    0.028337|
|        3290|  4.1626e+01|  4.1626e+01|   -9.072845|  1.3542e-05|    0.028325|
|        3300|  4.1626e+01|  4.1626e+01|   -9.075741|  1.3463e-05|    0.028312|
|        3310|  4.1626e+01|  4.1626e+01|   -9.078671|  1.3385e-05|    0.028300|
|        3320|  4.1626e+01|  4.1626e+01|   -9.081619|  1.3306e-05|    0.028287|
|        3330|  4.1626e+01|  4.1626e+01|   -9.084574|  1.3228e-05|    0.028275|
|        3340|  4.1626e+01|  4.1626e+01|   -9.087534|  1.3151e-05|    0.028263|
|        3350|  4.1626e+01|  4.1626e+01|   -9.090485|  1.3073e-05|    0.028251|
|        3360|  4.1626e+01|  4.1626e+01|   -9.093410|  1.2996e-05|    0.028238|
|        3370|  4.1626e+01|  4.1626e+01|   -9.096295|  1.2919e-05|    0.028226|
|        3380|  4.1626e+01|  4.1626e+01|   -9.099114|  1.2842e-05|    0.028215|
|        3390|  4.1626e+01|  4.1626e+01|   -9.101850|  1.2765e-05|    0.028203|
|        3400|  4.1626e+01|  4.1626e+01|   -9.104469|  1.2689e-05|    0.028191|
+-----------------------------------------------------------------------+
|        File Writing Summary       |              Filename             |
+-----------------------------------------------------------------------+
|SU2 binary restart                 |restart_flow_aoa13.dat             |
|Paraview                           |flow_aoa13.vtu                     |
|Paraview surface                   |surface_flow_aoa13.vtu             |
+-----------------------------------------------------------------------+
+-----------------------------------------------------------------------------+
|  Inner_Iter|     Min CFL|     Max CFL|      rms[P]|  Cauchy[CD]|          CD|
+-----------------------------------------------------------------------------+
|        3410|  4.1626e+01|  4.1626e+01|   -9.106980|  1.2613e-05|    0.028179|
|        3420|  4.1626e+01|  4.1626e+01|   -9.109381|  1.2537e-05|    0.028168|
|        3430|  4.1626e+01|  4.1626e+01|   -9.111681|  1.2462e-05|    0.028156|
|        3440|  4.1626e+01|  4.1626e+01|   -9.113891|  1.2386e-05|    0.028144|
|        3450|  4.1626e+01|  4.1626e+01|   -9.116020|  1.2311e-05|    0.028133|
|        3460|  4.1626e+01|  4.1626e+01|   -9.118081|  1.2236e-05|    0.028122|
|        3470|  4.1626e+01|  4.1626e+01|   -9.120083|  1.2161e-05|    0.028110|
|        3480|  4.1626e+01|  4.1626e+01|   -9.122047|  1.2087e-05|    0.028099|
|        3490|  4.1626e+01|  4.1626e+01|   -9.123981|  1.2012e-05|    0.028088|
|        3500|  4.1626e+01|  4.1626e+01|   -9.125897|  1.1939e-05|    0.028077|
|        3510|  4.1626e+01|  4.1626e+01|   -9.127814|  1.1865e-05|    0.028066|
|        3520|  4.1626e+01|  4.1626e+01|   -9.129746|  1.1792e-05|    0.028055|
|        3530|  4.1626e+01|  4.1626e+01|   -9.131713|  1.1720e-05|    0.028044|
|        3540|  4.1626e+01|  4.1626e+01|   -9.133734|  1.1648e-05|    0.028033|
|        3550|  4.1626e+01|  4.1626e+01|   -9.135820|  1.1576e-05|    0.028023|
|        3560|  4.1626e+01|  4.1626e+01|   -9.137977|  1.1505e-05|    0.028012|
|        3570|  4.1626e+01|  4.1626e+01|   -9.140215|  1.1434e-05|    0.028001|
|        3580|  4.1626e+01|  4.1626e+01|   -9.142524|  1.1363e-05|    0.027991|
|        3590|  4.1626e+01|  4.1626e+01|   -9.144908|  1.1293e-05|    0.027980|
|        3600|  4.1626e+01|  4.1626e+01|   -9.147371|  1.1223e-05|    0.027970|
+-----------------------------------------------------------------------+
|        File Writing Summary       |              Filename             |
+-----------------------------------------------------------------------+
|SU2 binary restart                 |restart_flow_aoa13.dat             |
|Paraview                           |flow_aoa13.vtu                     |
|Paraview surface                   |surface_flow_aoa13.vtu             |
+-----------------------------------------------------------------------+
+-----------------------------------------------------------------------------+
|  Inner_Iter|     Min CFL|     Max CFL|      rms[P]|  Cauchy[CD]|          CD|
+-----------------------------------------------------------------------------+
|        3610|  4.1626e+01|  4.1626e+01|   -9.149913|  1.1154e-05|    0.027960|
|        3620|  4.1626e+01|  4.1626e+01|   -9.152528|  1.1085e-05|    0.027949|
|        3630|  4.1626e+01|  4.1626e+01|   -9.155205|  1.1016e-05|    0.027939|
|        3640|  4.1626e+01|  4.1626e+01|   -9.157933|  1.0949e-05|    0.027929|
|        3650|  4.1626e+01|  4.1626e+01|   -9.160694|  1.0881e-05|    0.027919|
|        3660|  4.1626e+01|  4.1626e+01|   -9.163480|  1.0814e-05|    0.027909|
|        3670|  4.1626e+01|  4.1626e+01|   -9.166270|  1.0747e-05|    0.027899|
|        3680|  4.1626e+01|  4.1626e+01|   -9.169050|  1.0681e-05|    0.027889|
|        3690|  4.1626e+01|  4.1626e+01|   -9.171799|  1.0615e-05|    0.027879|
|        3700|  4.1626e+01|  4.1626e+01|   -9.174508|  1.0549e-05|    0.027869|
|        3710|  4.1626e+01|  4.1626e+01|   -9.177158|  1.0484e-05|    0.027860|
|        3720|  4.1626e+01|  4.1626e+01|   -9.179751|  1.0419e-05|    0.027850|
|        3730|  4.1626e+01|  4.1626e+01|   -9.182271|  1.0354e-05|    0.027840|
|        3740|  4.1626e+01|  4.1626e+01|   -9.184724|  1.0291e-05|    0.027831|
|        3750|  4.1626e+01|  4.1626e+01|   -9.187113|  1.0227e-05|    0.027821|
|        3760|  4.1626e+01|  4.1626e+01|   -9.189445|  1.0164e-05|    0.027812|
|        3770|  4.1626e+01|  4.1626e+01|   -9.191733|  1.0102e-05|    0.027803|
|        3780|  4.1626e+01|  4.1626e+01|   -9.193990|  1.0039e-05|    0.027793|
|        3790|  4.1626e+01|  4.1626e+01|   -9.196233|  9.9775e-06|    0.027784|
|        3800|  4.1626e+01|  4.1626e+01|   -9.198479|  9.9159e-06|    0.027775|
+-----------------------------------------------------------------------+
|        File Writing Summary       |              Filename             |
+-----------------------------------------------------------------------+
|SU2 binary restart                 |restart_flow_aoa13.dat             |
|Paraview                           |flow_aoa13.vtu                     |
|Paraview surface                   |surface_flow_aoa13.vtu             |
+-----------------------------------------------------------------------+
+-----------------------------------------------------------------------------+
|  Inner_Iter|     Min CFL|     Max CFL|      rms[P]|  Cauchy[CD]|          CD|
+-----------------------------------------------------------------------------+
|        3810|  4.1626e+01|  4.1626e+01|   -9.200738|  9.8545e-06|    0.027766|
|        3820|  4.1626e+01|  4.1626e+01|   -9.203017|  9.7937e-06|    0.027757|
|        3830|  4.1626e+01|  4.1626e+01|   -9.205326|  9.7333e-06|    0.027748|
|        3840|  4.1626e+01|  4.1626e+01|   -9.207668|  9.6735e-06|    0.027739|
|        3850|  4.1626e+01|  4.1626e+01|   -9.210050|  9.6140e-06|    0.027730|
|        3860|  4.1626e+01|  4.1626e+01|   -9.212481|  9.5549e-06|    0.027721|
|        3870|  4.1626e+01|  4.1626e+01|   -9.214960|  9.4961e-06|    0.027712|
|        3880|  4.1626e+01|  4.1626e+01|   -9.217492|  9.4375e-06|    0.027703|
|        3890|  4.1626e+01|  4.1626e+01|   -9.220087|  9.3793e-06|    0.027694|
|        3900|  4.1626e+01|  4.1626e+01|   -9.222753|  9.3213e-06|    0.027686|
|        3910|  4.1626e+01|  4.1626e+01|   -9.225481|  9.2637e-06|    0.027677|
|        3920|  4.1626e+01|  4.1626e+01|   -9.228275|  9.2066e-06|    0.027669|
|        3930|  4.1626e+01|  4.1626e+01|   -9.231125|  9.1500e-06|    0.027660|
|        3940|  4.1626e+01|  4.1626e+01|   -9.234025|  9.0939e-06|    0.027652|
|        3950|  4.1626e+01|  4.1626e+01|   -9.236967|  9.0382e-06|    0.027643|
|        3960|  4.1626e+01|  4.1626e+01|   -9.239944|  8.9829e-06|    0.027635|
|        3970|  4.1626e+01|  4.1626e+01|   -9.242936|  8.9279e-06|    0.027627|
|        3980|  4.1626e+01|  4.1626e+01|   -9.245932|  8.8731e-06|    0.027619|
|        3990|  4.1626e+01|  4.1626e+01|   -9.248920|  8.8185e-06|    0.027610|
|        4000|  4.1626e+01|  4.1626e+01|   -9.251884|  8.7640e-06|    0.027602|
+-----------------------------------------------------------------------+
|        File Writing Summary       |              Filename             |
+-----------------------------------------------------------------------+
|SU2 binary restart                 |restart_flow_aoa13.dat             |
|Paraview                           |flow_aoa13.vtu                     |
|Paraview surface                   |surface_flow_aoa13.vtu             |
+-----------------------------------------------------------------------+
+-----------------------------------------------------------------------------+
|  Inner_Iter|     Min CFL|     Max CFL|      rms[P]|  Cauchy[CD]|          CD|
+-----------------------------------------------------------------------------+
|        4010|  4.1626e+01|  4.1626e+01|   -9.254811|  8.7096e-06|    0.027594|
|        4020|  4.1626e+01|  4.1626e+01|   -9.257693|  8.6555e-06|    0.027586|
|        4030|  4.1626e+01|  4.1626e+01|   -9.260524|  8.6015e-06|    0.027578|
|        4040|  4.1626e+01|  4.1626e+01|   -9.263305|  8.5478e-06|    0.027570|
|        4050|  4.1626e+01|  4.1626e+01|   -9.266029|  8.4944e-06|    0.027562|
|        4060|  4.1626e+01|  4.1626e+01|   -9.268708|  8.4414e-06|    0.027555|
|        4070|  4.1626e+01|  4.1626e+01|   -9.271341|  8.3885e-06|    0.027547|
|        4080|  4.1626e+01|  4.1626e+01|   -9.273932|  8.3358e-06|    0.027539|
|        4090|  4.1626e+01|  4.1626e+01|   -9.276488|  8.2833e-06|    0.027531|
|        4100|  4.1626e+01|  4.1626e+01|   -9.279015|  8.2309e-06|    0.027524|
|        4110|  4.1626e+01|  4.1626e+01|   -9.281518|  8.1786e-06|    0.027516|
|        4120|  4.1626e+01|  4.1626e+01|   -9.283998|  8.1264e-06|    0.027509|
|        4130|  4.1626e+01|  4.1626e+01|   -9.286469|  8.0744e-06|    0.027501|
|        4140|  4.1626e+01|  4.1626e+01|   -9.288925|  8.0227e-06|    0.027494|
|        4150|  4.1626e+01|  4.1626e+01|   -9.291390|  7.9713e-06|    0.027487|
|        4160|  4.1626e+01|  4.1626e+01|   -9.293875|  7.9202e-06|    0.027479|
|        4170|  4.1626e+01|  4.1626e+01|   -9.296390|  7.8693e-06|    0.027472|
|        4180|  4.1626e+01|  4.1626e+01|   -9.298950|  7.8188e-06|    0.027465|
|        4190|  4.1626e+01|  4.1626e+01|   -9.301560|  7.7686e-06|    0.027458|
|        4200|  4.1626e+01|  4.1626e+01|   -9.304219|  7.7187e-06|    0.027450|
+-----------------------------------------------------------------------+
|        File Writing Summary       |              Filename             |
+-----------------------------------------------------------------------+
|SU2 binary restart                 |restart_flow_aoa13.dat             |
|Paraview                           |flow_aoa13.vtu                     |
|Paraview surface                   |surface_flow_aoa13.vtu             |
+-----------------------------------------------------------------------+
+-----------------------------------------------------------------------------+
|  Inner_Iter|     Min CFL|     Max CFL|      rms[P]|  Cauchy[CD]|          CD|
+-----------------------------------------------------------------------------+
|        4210|  4.1626e+01|  4.1626e+01|   -9.306933|  7.6692e-06|    0.027443|
|        4220|  4.1626e+01|  4.1626e+01|   -9.309704|  7.6202e-06|    0.027436|
|        4230|  4.1626e+01|  4.1626e+01|   -9.312534|  7.5715e-06|    0.027429|
|        4240|  4.1626e+01|  4.1626e+01|   -9.315423|  7.5233e-06|    0.027422|
|        4250|  4.1626e+01|  4.1626e+01|   -9.318350|  7.4755e-06|    0.027415|
|        4260|  4.1626e+01|  4.1626e+01|   -9.321304|  7.4280e-06|    0.027408|
|        4270|  4.1626e+01|  4.1626e+01|   -9.324270|  7.3808e-06|    0.027402|
|        4280|  4.1626e+01|  4.1626e+01|   -9.327247|  7.3340e-06|    0.027395|
|        4290|  4.1626e+01|  4.1626e+01|   -9.330233|  7.2873e-06|    0.027388|
|        4300|  4.1626e+01|  4.1626e+01|   -9.333216|  7.2408e-06|    0.027381|
|        4310|  4.1626e+01|  4.1626e+01|   -9.336202|  7.1945e-06|    0.027375|
|        4320|  4.1626e+01|  4.1626e+01|   -9.339182|  7.1485e-06|    0.027368|
|        4330|  2.1478e+01|  2.1478e+01|   -9.350850|  6.9517e-06|    0.027365|
|        4340|  1.1082e+01|  1.1082e+01|   -9.353325|  6.7688e-06|    0.027362|
|        4350|  5.7182e+00|  5.7182e+00|   -9.344101|  6.6106e-06|    0.027359|
|        4360|  3.5406e+01|  3.5406e+01|   -9.354601|  6.4012e-06|    0.027356|
|        4370|  4.2487e+01|  4.2487e+01|   -9.347984|  6.3580e-06|    0.027350|
|        4380|  4.2487e+01|  4.2487e+01|   -9.350811|  6.3224e-06|    0.027343|
|        4390|  4.2487e+01|  4.2487e+01|   -9.353513|  6.2846e-06|    0.027337|
|        4400|  4.2487e+01|  4.2487e+01|   -9.356063|  6.2501e-06|    0.027330|
+-----------------------------------------------------------------------+
|        File Writing Summary       |              Filename             |
+-----------------------------------------------------------------------+
|SU2 binary restart                 |restart_flow_aoa13.dat             |
|Paraview                           |flow_aoa13.vtu                     |
|Paraview surface                   |surface_flow_aoa13.vtu             |
+-----------------------------------------------------------------------+
+-----------------------------------------------------------------------------+
|  Inner_Iter|     Min CFL|     Max CFL|      rms[P]|  Cauchy[CD]|          CD|
+-----------------------------------------------------------------------------+
|        4410|  4.2487e+01|  4.2487e+01|   -9.358929|  6.2191e-06|    0.027324|
|        4420|  4.2487e+01|  4.2487e+01|   -9.361541|  6.1876e-06|    0.027317|
|        4430|  4.2487e+01|  4.2487e+01|   -9.363854|  6.1525e-06|    0.027311|
|        4440|  4.2487e+01|  4.2487e+01|   -9.366264|  6.1154e-06|    0.027305|
|        4450|  4.2487e+01|  4.2487e+01|   -9.368817|  6.0788e-06|    0.027298|
|        4460|  4.2487e+01|  4.2487e+01|   -9.371432|  6.0436e-06|    0.027292|
|        4470|  4.2487e+01|  4.2487e+01|   -9.374130|  6.0091e-06|    0.027286|
|        4480|  4.2487e+01|  4.2487e+01|   -9.376874|  5.9752e-06|    0.027280|
|        4490|  4.2487e+01|  4.2487e+01|   -9.379654|  5.9421e-06|    0.027274|
|        4500|  4.2487e+01|  4.2487e+01|   -9.382401|  5.9093e-06|    0.027268|
|        4510|  4.2487e+01|  4.2487e+01|   -9.384993|  5.8757e-06|    0.027262|
|        4520|  4.2487e+01|  4.2487e+01|   -9.387559|  5.8413e-06|    0.027256|
|        4530|  4.2487e+01|  4.2487e+01|   -9.390325|  5.8073e-06|    0.027250|
|        4540|  4.2487e+01|  4.2487e+01|   -9.393314|  5.7743e-06|    0.027244|
|        4550|  4.2487e+01|  4.2487e+01|   -9.396398|  5.7423e-06|    0.027238|
|        4560|  4.2487e+01|  4.2487e+01|   -9.399460|  5.7105e-06|    0.027232|
|        4570|  4.2487e+01|  4.2487e+01|   -9.402428|  5.6782e-06|    0.027226|
|        4580|  4.2487e+01|  4.2487e+01|   -9.405291|  5.7966e-06|    0.027220|
|        4590|  4.2487e+01|  4.2487e+01|   -9.408108|  5.9018e-06|    0.027215|
|        4600|  4.2487e+01|  4.2487e+01|   -9.411029|  5.9832e-06|    0.027209|
+-----------------------------------------------------------------------+
|        File Writing Summary       |              Filename             |
+-----------------------------------------------------------------------+
|SU2 binary restart                 |restart_flow_aoa13.dat             |
|Paraview                           |flow_aoa13.vtu                     |
|Paraview surface                   |surface_flow_aoa13.vtu             |
+-----------------------------------------------------------------------+
+-----------------------------------------------------------------------------+
|  Inner_Iter|     Min CFL|     Max CFL|      rms[P]|  Cauchy[CD]|          CD|
+-----------------------------------------------------------------------------+
|        4610|  4.2487e+01|  4.2487e+01|   -9.414169|  6.1165e-06|    0.027203|
|        4620|  4.2487e+01|  4.2487e+01|   -9.417506|  6.0841e-06|    0.027198|
|        4630|  4.2487e+01|  4.2487e+01|   -9.420878|  6.0449e-06|    0.027192|
|        4640|  4.2487e+01|  4.2487e+01|   -9.424120|  6.0081e-06|    0.027187|
|        4650|  4.2487e+01|  4.2487e+01|   -9.427158|  5.9680e-06|    0.027181|
|        4660|  4.2487e+01|  4.2487e+01|   -9.430055|  5.9246e-06|    0.027176|
|        4670|  4.2487e+01|  4.2487e+01|   -9.432951|  5.8822e-06|    0.027170|
|        4680|  4.2487e+01|  4.2487e+01|   -9.435975|  5.8440e-06|    0.027165|
|        4690|  4.2487e+01|  4.2487e+01|   -9.439134|  5.8082e-06|    0.027159|
|        4700|  4.2487e+01|  4.2487e+01|   -9.442313|  5.7722e-06|    0.027154|
|        4710|  4.2487e+01|  4.2487e+01|   -9.445377|  5.7351e-06|    0.027149|
|        4720|  4.2487e+01|  4.2487e+01|   -9.448264|  5.6976e-06|    0.027144|
|        4730|  4.2487e+01|  4.2487e+01|   -9.451015|  5.6598e-06|    0.027138|
|        4740|  4.2487e+01|  4.2487e+01|   -9.453740|  5.6216e-06|    0.027133|
|        4750|  4.2487e+01|  4.2487e+01|   -9.456537|  5.5833e-06|    0.027128|
|        4760|  4.2487e+01|  4.2487e+01|   -9.459441|  5.5463e-06|    0.027123|
|        4770|  4.2487e+01|  4.2487e+01|   -9.462399|  5.5105e-06|    0.027118|
|        4780|  4.2487e+01|  4.2487e+01|   -9.465323|  5.4747e-06|    0.027113|
|        4790|  4.2487e+01|  4.2487e+01|   -9.468166|  5.4383e-06|    0.027108|
|        4800|  4.2487e+01|  4.2487e+01|   -9.470950|  5.4012e-06|    0.027103|
+-----------------------------------------------------------------------+
|        File Writing Summary       |              Filename             |
+-----------------------------------------------------------------------+
|SU2 binary restart                 |restart_flow_aoa13.dat             |
|Paraview                           |flow_aoa13.vtu                     |
|Paraview surface                   |surface_flow_aoa13.vtu             |
+-----------------------------------------------------------------------+
+-----------------------------------------------------------------------------+
|  Inner_Iter|     Min CFL|     Max CFL|      rms[P]|  Cauchy[CD]|          CD|
+-----------------------------------------------------------------------------+
|        4810|  4.2487e+01|  4.2487e+01|   -9.473738|  5.3643e-06|    0.027098|
|        4820|  4.2487e+01|  4.2487e+01|   -9.476589|  5.3283e-06|    0.027093|
|        4830|  4.2487e+01|  4.2487e+01|   -9.479538|  5.2928e-06|    0.027088|
|        4840|  4.2487e+01|  4.2487e+01|   -9.482557|  5.2572e-06|    0.027083|
|        4850|  4.2487e+01|  4.2487e+01|   -9.485595|  5.2213e-06|    0.027078|
|        4860|  4.2487e+01|  4.2487e+01|   -9.488613|  5.1855e-06|    0.027074|
|        4870|  4.2487e+01|  4.2487e+01|   -9.491614|  5.1497e-06|    0.027069|
|        4880|  4.2487e+01|  4.2487e+01|   -9.494625|  5.1138e-06|    0.027064|
|        4890|  4.2487e+01|  4.2487e+01|   -9.497689|  5.0782e-06|    0.027060|
|        4900|  4.2487e+01|  4.2487e+01|   -9.500825|  5.0433e-06|    0.027055|
|        4910|  4.2487e+01|  4.2487e+01|   -9.504016|  5.0086e-06|    0.027050|
|        4920|  4.2487e+01|  4.2487e+01|   -9.507232|  4.9739e-06|    0.027046|
|        4930|  4.2487e+01|  4.2487e+01|   -9.510442|  4.9392e-06|    0.027041|
|        4940|  4.2487e+01|  4.2487e+01|   -9.513628|  4.9045e-06|    0.027037|
|        4950|  4.2487e+01|  4.2487e+01|   -9.516791|  4.8701e-06|    0.027032|
|        4960|  4.2487e+01|  4.2487e+01|   -9.519941|  4.8359e-06|    0.027028|
|        4970|  4.2487e+01|  4.2487e+01|   -9.523085|  4.8021e-06|    0.027024|
|        4980|  4.2487e+01|  4.2487e+01|   -9.526223|  4.7687e-06|    0.027019|
|        4990|  4.2487e+01|  4.2487e+01|   -9.529342|  4.7355e-06|    0.027015|
|        5000|  4.2487e+01|  4.2487e+01|   -9.532430|  4.7027e-06|    0.027010|
+-----------------------------------------------------------------------+
|        File Writing Summary       |              Filename             |
+-----------------------------------------------------------------------+
|SU2 binary restart                 |restart_flow_aoa13.dat             |
|Paraview                           |flow_aoa13.vtu                     |
|Paraview surface                   |surface_flow_aoa13.vtu             |
+-----------------------------------------------------------------------+
+-----------------------------------------------------------------------------+
|  Inner_Iter|     Min CFL|     Max CFL|      rms[P]|  Cauchy[CD]|          CD|
+-----------------------------------------------------------------------------+
|        5010|  4.2487e+01|  4.2487e+01|   -9.535480|  4.6700e-06|    0.027006|
|        5020|  4.2487e+01|  4.2487e+01|   -9.538491|  4.6375e-06|    0.027002|
|        5030|  4.2487e+01|  4.2487e+01|   -9.541464|  4.6052e-06|    0.026998|
|        5040|  4.2487e+01|  4.2487e+01|   -9.544411|  4.5732e-06|    0.026993|
|        5050|  4.2487e+01|  4.2487e+01|   -9.547345|  4.5416e-06|    0.026989|
|        5060|  4.2487e+01|  4.2487e+01|   -9.550271|  4.5102e-06|    0.026985|
|        5070|  4.2487e+01|  4.2487e+01|   -9.553191|  4.4790e-06|    0.026981|
|        5080|  4.2487e+01|  4.2487e+01|   -9.556112|  4.4481e-06|    0.026977|
|        5090|  4.2487e+01|  4.2487e+01|   -9.559030|  4.4175e-06|    0.026973|
|        5100|  4.2487e+01|  4.2487e+01|   -9.561948|  4.3872e-06|    0.026969|
|        5110|  4.2487e+01|  4.2487e+01|   -9.564866|  4.3571e-06|    0.026965|
|        5120|  4.2487e+01|  4.2487e+01|   -9.567792|  4.3274e-06|    0.026961|
|        5130|  4.2487e+01|  4.2487e+01|   -9.570734|  4.2980e-06|    0.026957|
|        5140|  4.2487e+01|  4.2487e+01|   -9.573695|  4.2688e-06|    0.026953|
|        5150|  4.2487e+01|  4.2487e+01|   -9.576681|  4.2398e-06|    0.026949|
|        5160|  4.2487e+01|  4.2487e+01|   -9.579698|  4.2111e-06|    0.026945|
|        5170|  4.2487e+01|  4.2487e+01|   -9.582746|  4.1826e-06|    0.026941|
|        5180|  4.2487e+01|  4.2487e+01|   -9.585825|  4.1545e-06|    0.026937|
|        5190|  4.2487e+01|  4.2487e+01|   -9.588930|  4.1265e-06|    0.026934|
|        5200|  4.2487e+01|  4.2487e+01|   -9.592055|  4.0988e-06|    0.026930|
+-----------------------------------------------------------------------+
|        File Writing Summary       |              Filename             |
+-----------------------------------------------------------------------+
|SU2 binary restart                 |restart_flow_aoa13.dat             |
|Paraview                           |flow_aoa13.vtu                     |
|Paraview surface                   |surface_flow_aoa13.vtu             |
+-----------------------------------------------------------------------+
+-----------------------------------------------------------------------------+
|  Inner_Iter|     Min CFL|     Max CFL|      rms[P]|  Cauchy[CD]|          CD|
+-----------------------------------------------------------------------------+
|        5210|  4.2487e+01|  4.2487e+01|   -9.595198|  4.0713e-06|    0.026926|
|        5220|  4.2487e+01|  4.2487e+01|   -9.598353|  4.0439e-06|    0.026922|
|        5230|  4.2487e+01|  4.2487e+01|   -9.601521|  4.0167e-06|    0.026919|
|        5240|  4.2487e+01|  4.2487e+01|   -9.604702|  3.9896e-06|    0.026915|
|        5250|  4.2487e+01|  4.2487e+01|   -9.607895|  3.9628e-06|    0.026911|
|        5260|  4.2487e+01|  4.2487e+01|   -9.611092|  3.9362e-06|    0.026908|
|        5270|  4.2487e+01|  4.2487e+01|   -9.614285|  3.9098e-06|    0.026904|
|        5280|  4.2487e+01|  4.2487e+01|   -9.617464|  3.8836e-06|    0.026901|
|        5290|  4.2487e+01|  4.2487e+01|   -9.620622|  3.8575e-06|    0.026897|
|        5300|  4.2487e+01|  4.2487e+01|   -9.623753|  3.8316e-06|    0.026893|
|        5310|  4.2487e+01|  4.2487e+01|   -9.626861|  3.8058e-06|    0.026890|
|        5320|  4.2487e+01|  4.2487e+01|   -9.629951|  3.7802e-06|    0.026887|
|        5330|  4.2487e+01|  4.2487e+01|   -9.633025|  3.7548e-06|    0.026883|
|        5340|  4.2487e+01|  4.2487e+01|   -9.636084|  3.7295e-06|    0.026880|
|        5350|  4.2487e+01|  4.2487e+01|   -9.639128|  3.7044e-06|    0.026876|
|        5360|  4.2487e+01|  4.2487e+01|   -9.642156|  3.6795e-06|    0.026873|
|        5370|  4.2487e+01|  4.2487e+01|   -9.645173|  3.6546e-06|    0.026869|
|        5380|  4.2487e+01|  4.2487e+01|   -9.648182|  3.6298e-06|    0.026866|
|        5390|  4.2487e+01|  4.2487e+01|   -9.651187|  3.6051e-06|    0.026863|
|        5400|  4.2487e+01|  4.2487e+01|   -9.654196|  3.5805e-06|    0.026860|
+-----------------------------------------------------------------------+
|        File Writing Summary       |              Filename             |
+-----------------------------------------------------------------------+
|SU2 binary restart                 |restart_flow_aoa13.dat             |
|Paraview                           |flow_aoa13.vtu                     |
|Paraview surface                   |surface_flow_aoa13.vtu             |
+-----------------------------------------------------------------------+
+-----------------------------------------------------------------------------+
|  Inner_Iter|     Min CFL|     Max CFL|      rms[P]|  Cauchy[CD]|          CD|
+-----------------------------------------------------------------------------+
|        5410|  4.2487e+01|  4.2487e+01|   -9.657211|  3.5559e-06|    0.026856|
|        5420|  4.2487e+01|  4.2487e+01|   -9.660236|  3.5314e-06|    0.026853|
|        5430|  4.2487e+01|  4.2487e+01|   -9.663270|  3.5069e-06|    0.026850|
|        5440|  4.2487e+01|  4.2487e+01|   -9.666314|  3.4826e-06|    0.026847|
|        5450|  4.2487e+01|  4.2487e+01|   -9.669369|  3.4583e-06|    0.026843|
|        5460|  4.2487e+01|  4.2487e+01|   -9.672438|  3.4341e-06|    0.026840|
|        5470|  4.2487e+01|  4.2487e+01|   -9.675524|  3.4100e-06|    0.026837|
|        5480|  4.2487e+01|  4.2487e+01|   -9.678631|  3.3859e-06|    0.026834|
|        5490|  4.2487e+01|  4.2487e+01|   -9.681767|  3.3620e-06|    0.026831|
|        5500|  4.2487e+01|  4.2487e+01|   -9.684918|  3.3382e-06|    0.026828|
|        5510|  4.2487e+01|  4.2487e+01|   -9.688100|  3.3144e-06|    0.026825|
|        5520|  4.2487e+01|  4.2487e+01|   -9.691299|  3.2909e-06|    0.026822|
|        5530|  4.2487e+01|  4.2487e+01|   -9.694509|  3.2674e-06|    0.026819|
|        5540|  4.2487e+01|  4.2487e+01|   -9.697730|  3.2441e-06|    0.026816|
|        5550|  4.2487e+01|  4.2487e+01|   -9.700956|  3.2209e-06|    0.026813|
|        5560|  4.2487e+01|  4.2487e+01|   -9.704185|  3.1979e-06|    0.026810|
|        5570|  4.2487e+01|  4.2487e+01|   -9.707410|  3.1749e-06|    0.026807|
|        5580|  4.2487e+01|  4.2487e+01|   -9.710633|  3.1521e-06|    0.026804|
|        5590|  4.2487e+01|  4.2487e+01|   -9.713849|  3.1294e-06|    0.026801|
|        5600|  4.2487e+01|  4.2487e+01|   -9.717057|  3.1068e-06|    0.026799|
+-----------------------------------------------------------------------+
|        File Writing Summary       |              Filename             |
+-----------------------------------------------------------------------+
|SU2 binary restart                 |restart_flow_aoa13.dat             |
|Paraview                           |flow_aoa13.vtu                     |
|Paraview surface                   |surface_flow_aoa13.vtu             |
+-----------------------------------------------------------------------+
+-----------------------------------------------------------------------------+
|  Inner_Iter|     Min CFL|     Max CFL|      rms[P]|  Cauchy[CD]|          CD|
+-----------------------------------------------------------------------------+
|        5610|  4.2487e+01|  4.2487e+01|   -9.720254|  3.0844e-06|    0.026796|
|        5620|  4.2487e+01|  4.2487e+01|   -9.723435|  3.0621e-06|    0.026793|
|        5630|  4.2487e+01|  4.2487e+01|   -9.726604|  3.0400e-06|    0.026790|
|        5640|  4.2487e+01|  4.2487e+01|   -9.729761|  3.0180e-06|    0.026787|
|        5650|  4.2487e+01|  4.2487e+01|   -9.732904|  2.9962e-06|    0.026785|
|        5660|  4.2487e+01|  4.2487e+01|   -9.736040|  2.9746e-06|    0.026782|
|        5670|  4.2487e+01|  4.2487e+01|   -9.739169|  2.9532e-06|    0.026779|
|        5680|  4.2487e+01|  4.2487e+01|   -9.742293|  2.9320e-06|    0.026776|
|        5690|  4.2487e+01|  4.2487e+01|   -9.745412|  2.9110e-06|    0.026774|
|        5700|  4.2487e+01|  4.2487e+01|   -9.748522|  2.8903e-06|    0.026771|
|        5710|  4.2487e+01|  4.2487e+01|   -9.751625|  2.8696e-06|    0.026769|
|        5720|  4.2487e+01|  4.2487e+01|   -9.754721|  2.8492e-06|    0.026766|
|        5730|  4.2487e+01|  4.2487e+01|   -9.757816|  2.8289e-06|    0.026763|
|        5740|  4.2487e+01|  4.2487e+01|   -9.760915|  2.8088e-06|    0.026761|
|        5750|  4.2487e+01|  4.2487e+01|   -9.764023|  2.7888e-06|    0.026758|
|        5760|  4.2487e+01|  4.2487e+01|   -9.767144|  2.7689e-06|    0.026756|
|        5770|  4.2487e+01|  4.2487e+01|   -9.770277|  2.7493e-06|    0.026753|
|        5780|  4.2487e+01|  4.2487e+01|   -9.773424|  2.7297e-06|    0.026751|
|        5790|  4.2487e+01|  4.2487e+01|   -9.776585|  2.7103e-06|    0.026748|
|        5800|  4.2487e+01|  4.2487e+01|   -9.779757|  2.6910e-06|    0.026746|
+-----------------------------------------------------------------------+
|        File Writing Summary       |              Filename             |
+-----------------------------------------------------------------------+
|SU2 binary restart                 |restart_flow_aoa13.dat             |
|Paraview                           |flow_aoa13.vtu                     |
|Paraview surface                   |surface_flow_aoa13.vtu             |
+-----------------------------------------------------------------------+
+-----------------------------------------------------------------------------+
|  Inner_Iter|     Min CFL|     Max CFL|      rms[P]|  Cauchy[CD]|          CD|
+-----------------------------------------------------------------------------+
|        5810|  4.2487e+01|  4.2487e+01|   -9.782939|  2.6718e-06|    0.026743|
|        5820|  4.2487e+01|  4.2487e+01|   -9.786128|  2.6528e-06|    0.026741|
|        5830|  4.2487e+01|  4.2487e+01|   -9.789323|  2.6339e-06|    0.026738|
|        5840|  4.2487e+01|  4.2487e+01|   -9.792524|  2.6151e-06|    0.026736|
|        5850|  4.2487e+01|  4.2487e+01|   -9.795727|  2.5965e-06|    0.026734|
|        5860|  4.2487e+01|  4.2487e+01|   -9.798927|  2.5781e-06|    0.026731|
|        5870|  4.2487e+01|  4.2487e+01|   -9.802123|  2.5598e-06|    0.026729|
|        5880|  4.2487e+01|  4.2487e+01|   -9.805312|  2.5416e-06|    0.026727|
|        5890|  4.2487e+01|  4.2487e+01|   -9.808498|  2.5236e-06|    0.026724|
|        5900|  4.2487e+01|  4.2487e+01|   -9.811670|  2.5057e-06|    0.026722|
|        5910|  4.2487e+01|  4.2487e+01|   -9.814841|  2.4880e-06|    0.026720|
|        5920|  4.2487e+01|  4.2487e+01|   -9.818002|  2.4704e-06|    0.026717|
|        5930|  4.2487e+01|  4.2487e+01|   -9.821147|  2.4529e-06|    0.026715|
|        5940|  4.2487e+01|  4.2487e+01|   -9.824278|  2.4355e-06|    0.026713|
|        5950|  4.2487e+01|  4.2487e+01|   -9.827396|  2.4182e-06|    0.026711|
|        5960|  4.2487e+01|  4.2487e+01|   -9.830505|  2.4011e-06|    0.026709|
|        5970|  4.2487e+01|  4.2487e+01|   -9.833610|  2.3840e-06|    0.026706|
|        5980|  4.2487e+01|  4.2487e+01|   -9.836710|  2.3670e-06|    0.026704|
|        5990|  4.2487e+01|  4.2487e+01|   -9.839804|  2.3502e-06|    0.026702|
|        6000|  4.2487e+01|  4.2487e+01|   -9.842888|  2.3335e-06|    0.026700|
+-----------------------------------------------------------------------+
|        File Writing Summary       |              Filename             |
+-----------------------------------------------------------------------+
|SU2 binary restart                 |restart_flow_aoa13.dat             |
|Paraview                           |flow_aoa13.vtu                     |
|Paraview surface                   |surface_flow_aoa13.vtu             |
+-----------------------------------------------------------------------+
+-----------------------------------------------------------------------------+
|  Inner_Iter|     Min CFL|     Max CFL|      rms[P]|  Cauchy[CD]|          CD|
+-----------------------------------------------------------------------------+
|        6010|  4.2487e+01|  4.2487e+01|   -9.845957|  2.3169e-06|    0.026698|
|        6020|  4.2487e+01|  4.2487e+01|   -9.849028|  2.3004e-06|    0.026696|
|        6030|  4.2487e+01|  4.2487e+01|   -9.852090|  2.2841e-06|    0.026694|
|        6040|  4.2487e+01|  4.2487e+01|   -9.855155|  2.2678e-06|    0.026691|
|        6050|  4.2487e+01|  4.2487e+01|   -9.858227|  2.2517e-06|    0.026689|
|        6060|  4.2487e+01|  4.2487e+01|   -9.861306|  2.2358e-06|    0.026687|
|        6070|  4.2487e+01|  4.2487e+01|   -9.864394|  2.2199e-06|    0.026685|
|        6080|  4.2487e+01|  4.2487e+01|   -9.867492|  2.2042e-06|    0.026683|
|        6090|  4.2487e+01|  4.2487e+01|   -9.870604|  2.1885e-06|    0.026681|
|        6100|  4.2487e+01|  4.2487e+01|   -9.873732|  2.1730e-06|    0.026679|
|        6110|  4.2487e+01|  4.2487e+01|   -9.876872|  2.1576e-06|    0.026677|
|        6120|  4.2487e+01|  4.2487e+01|   -9.880022|  2.1422e-06|    0.026675|
|        6130|  4.2487e+01|  4.2487e+01|   -9.883177|  2.1270e-06|    0.026673|
|        6140|  4.2487e+01|  4.2487e+01|   -9.886340|  2.1119e-06|    0.026671|
|        6150|  4.2487e+01|  4.2487e+01|   -9.889511|  2.0969e-06|    0.026670|
|        6160|  4.2487e+01|  4.2487e+01|   -9.892693|  2.0820e-06|    0.026668|
|        6170|  4.2487e+01|  4.2487e+01|   -9.895888|  2.0671e-06|    0.026666|
|        6180|  4.2487e+01|  4.2487e+01|   -9.899091|  2.0524e-06|    0.026664|
|        6190|  4.2487e+01|  4.2487e+01|   -9.902298|  2.0378e-06|    0.026662|
|        6200|  4.2487e+01|  4.2487e+01|   -9.905510|  2.0233e-06|    0.026660|
+-----------------------------------------------------------------------+
|        File Writing Summary       |              Filename             |
+-----------------------------------------------------------------------+
|SU2 binary restart                 |restart_flow_aoa13.dat             |
|Paraview                           |flow_aoa13.vtu                     |
|Paraview surface                   |surface_flow_aoa13.vtu             |
+-----------------------------------------------------------------------+
+-----------------------------------------------------------------------------+
|  Inner_Iter|     Min CFL|     Max CFL|      rms[P]|  Cauchy[CD]|          CD|
+-----------------------------------------------------------------------------+
|        6210|  4.2487e+01|  4.2487e+01|   -9.908724|  2.0089e-06|    0.026658|
|        6220|  4.2487e+01|  4.2487e+01|   -9.911939|  1.9946e-06|    0.026656|
|        6230|  4.2487e+01|  4.2487e+01|   -9.915155|  1.9804e-06|    0.026655|
|        6240|  4.2487e+01|  4.2487e+01|   -9.918370|  1.9663e-06|    0.026653|
|        6250|  4.2487e+01|  4.2487e+01|   -9.921582|  1.9523e-06|    0.026651|
|        6260|  4.2487e+01|  4.2487e+01|   -9.924791|  1.9384e-06|    0.026649|
|        6270|  4.2487e+01|  4.2487e+01|   -9.927997|  1.9246e-06|    0.026648|
|        6280|  4.2487e+01|  4.2487e+01|   -9.931202|  1.9109e-06|    0.026646|
|        6290|  4.2487e+01|  4.2487e+01|   -9.934407|  1.8973e-06|    0.026644|
|        6300|  4.2487e+01|  4.2487e+01|   -9.937611|  1.8838e-06|    0.026642|
|        6310|  4.2487e+01|  4.2487e+01|   -9.940811|  1.8703e-06|    0.026641|
|        6320|  4.2487e+01|  4.2487e+01|   -9.944007|  1.8570e-06|    0.026639|
|        6330|  4.2487e+01|  4.2487e+01|   -9.947200|  1.8438e-06|    0.026637|
|        6340|  4.2487e+01|  4.2487e+01|   -9.950393|  1.8306e-06|    0.026636|
|        6350|  4.2487e+01|  4.2487e+01|   -9.953587|  1.8175e-06|    0.026634|
|        6360|  4.2487e+01|  4.2487e+01|   -9.956784|  1.8046e-06|    0.026632|
|        6370|  4.2487e+01|  4.2487e+01|   -9.959983|  1.7917e-06|    0.026631|
|        6380|  4.2487e+01|  4.2487e+01|   -9.963185|  1.7788e-06|    0.026629|
|        6390|  4.2487e+01|  4.2487e+01|   -9.966388|  1.7661e-06|    0.026627|
|        6400|  4.2487e+01|  4.2487e+01|   -9.969593|  1.7535e-06|    0.026626|
+-----------------------------------------------------------------------+
|        File Writing Summary       |              Filename             |
+-----------------------------------------------------------------------+
|SU2 binary restart                 |restart_flow_aoa13.dat             |
|Paraview                           |flow_aoa13.vtu                     |
|Paraview surface                   |surface_flow_aoa13.vtu             |
+-----------------------------------------------------------------------+
+-----------------------------------------------------------------------------+
|  Inner_Iter|     Min CFL|     Max CFL|      rms[P]|  Cauchy[CD]|          CD|
+-----------------------------------------------------------------------------+
|        6410|  4.2487e+01|  4.2487e+01|   -9.972801|  1.7409e-06|    0.026624|
|        6420|  4.2487e+01|  4.2487e+01|   -9.976011|  1.7284e-06|    0.026623|
|        6430|  4.2487e+01|  4.2487e+01|   -9.979227|  1.7160e-06|    0.026621|
|        6440|  4.2487e+01|  4.2487e+01|   -9.982447|  1.7036e-06|    0.026619|
|        6450|  4.2487e+01|  4.2487e+01|   -9.985669|  1.6914e-06|    0.026618|
|        6460|  4.2487e+01|  4.2487e+01|   -9.988893|  1.6792e-06|    0.026616|
|        6470|  4.2487e+01|  4.2487e+01|   -9.992118|  1.6671e-06|    0.026615|
|        6480|  4.2487e+01|  4.2487e+01|   -9.995341|  1.6551e-06|    0.026613|
|        6490|  4.2487e+01|  4.2487e+01|   -9.998564|  1.6431e-06|    0.026612|
|        6500|  4.2487e+01|  4.2487e+01|  -10.001786|  1.6312e-06|    0.026610|
|        6510|  4.2487e+01|  4.2487e+01|  -10.005006|  1.6194e-06|    0.026609|
|        6520|  4.2487e+01|  4.2487e+01|  -10.008224|  1.6077e-06|    0.026607|
|        6530|  4.2487e+01|  4.2487e+01|  -10.011435|  1.5960e-06|    0.026606|
|        6540|  4.2487e+01|  4.2487e+01|  -10.014645|  1.5844e-06|    0.026604|
|        6550|  4.2487e+01|  4.2487e+01|  -10.017849|  1.5728e-06|    0.026603|
|        6560|  4.2487e+01|  4.2487e+01|  -10.021048|  1.5614e-06|    0.026602|
|        6570|  4.2487e+01|  4.2487e+01|  -10.024242|  1.5500e-06|    0.026600|
|        6580|  4.2487e+01|  4.2487e+01|  -10.027428|  1.5386e-06|    0.026599|
|        6590|  4.2487e+01|  4.2487e+01|  -10.030608|  1.5274e-06|    0.026597|
|        6600|  4.2487e+01|  4.2487e+01|  -10.033781|  1.5162e-06|    0.026596|
+-----------------------------------------------------------------------+
|        File Writing Summary       |              Filename             |
+-----------------------------------------------------------------------+
|SU2 binary restart                 |restart_flow_aoa13.dat             |
|Paraview                           |flow_aoa13.vtu                     |
|Paraview surface                   |surface_flow_aoa13.vtu             |
+-----------------------------------------------------------------------+
+-----------------------------------------------------------------------------+
|  Inner_Iter|     Min CFL|     Max CFL|      rms[P]|  Cauchy[CD]|          CD|
+-----------------------------------------------------------------------------+
|        6610|  4.2487e+01|  4.2487e+01|  -10.036948|  1.5051e-06|    0.026595|
|        6620|  4.2487e+01|  4.2487e+01|  -10.040109|  1.4940e-06|    0.026593|
|        6630|  4.2487e+01|  4.2487e+01|  -10.043264|  1.4830e-06|    0.026592|
|        6640|  4.2487e+01|  4.2487e+01|  -10.046415|  1.4721e-06|    0.026591|
|        6650|  4.2487e+01|  4.2487e+01|  -10.049563|  1.4613e-06|    0.026589|
|        6660|  4.2487e+01|  4.2487e+01|  -10.052709|  1.4505e-06|    0.026588|
|        6670|  4.2487e+01|  4.2487e+01|  -10.055853|  1.4399e-06|    0.026587|
|        6680|  4.2487e+01|  4.2487e+01|  -10.058996|  1.4293e-06|    0.026585|
|        6690|  4.2487e+01|  4.2487e+01|  -10.062140|  1.4187e-06|    0.026584|
|        6700|  4.2487e+01|  4.2487e+01|  -10.065285|  1.4083e-06|    0.026583|
|        6710|  4.2487e+01|  4.2487e+01|  -10.068434|  1.3979e-06|    0.026581|
|        6720|  4.2487e+01|  4.2487e+01|  -10.071586|  1.3876e-06|    0.026580|
|        6730|  4.2487e+01|  4.2487e+01|  -10.074743|  1.3774e-06|    0.026579|
|        6740|  4.2487e+01|  4.2487e+01|  -10.077905|  1.3672e-06|    0.026578|
|        6750|  4.2487e+01|  4.2487e+01|  -10.081074|  1.3572e-06|    0.026576|
|        6760|  4.2487e+01|  4.2487e+01|  -10.084244|  1.3472e-06|    0.026575|
|        6770|  4.2487e+01|  4.2487e+01|  -10.087419|  1.3373e-06|    0.026574|
|        6780|  4.2487e+01|  4.2487e+01|  -10.090598|  1.3274e-06|    0.026573|
|        6790|  4.2487e+01|  4.2487e+01|  -10.093781|  1.3177e-06|    0.026571|
|        6800|  4.2487e+01|  4.2487e+01|  -10.096969|  1.3080e-06|    0.026570|
+-----------------------------------------------------------------------+
|        File Writing Summary       |              Filename             |
+-----------------------------------------------------------------------+
|SU2 binary restart                 |restart_flow_aoa13.dat             |
|Paraview                           |flow_aoa13.vtu                     |
|Paraview surface                   |surface_flow_aoa13.vtu             |
+-----------------------------------------------------------------------+
+-----------------------------------------------------------------------------+
|  Inner_Iter|     Min CFL|     Max CFL|      rms[P]|  Cauchy[CD]|          CD|
+-----------------------------------------------------------------------------+
|        6810|  4.2487e+01|  4.2487e+01|  -10.100163|  1.2984e-06|    0.026569|
|        6820|  4.2487e+01|  4.2487e+01|  -10.103361|  1.2889e-06|    0.026568|
|        6830|  4.2487e+01|  4.2487e+01|  -10.106562|  1.2794e-06|    0.026567|
|        6840|  4.2487e+01|  4.2487e+01|  -10.109766|  1.2700e-06|    0.026566|
|        6850|  4.2487e+01|  4.2487e+01|  -10.112972|  1.2607e-06|    0.026564|
|        6860|  4.2487e+01|  4.2487e+01|  -10.116178|  1.2515e-06|    0.026563|
|        6870|  4.2487e+01|  4.2487e+01|  -10.119384|  1.2424e-06|    0.026562|
|        6880|  4.2487e+01|  4.2487e+01|  -10.122590|  1.2333e-06|    0.026561|
|        6890|  4.2487e+01|  4.2487e+01|  -10.125796|  1.2243e-06|    0.026560|
|        6900|  4.2487e+01|  4.2487e+01|  -10.129001|  1.2154e-06|    0.026559|
|        6910|  4.2487e+01|  4.2487e+01|  -10.132203|  1.2065e-06|    0.026558|
|        6920|  4.2487e+01|  4.2487e+01|  -10.135401|  1.1977e-06|    0.026557|
|        6930|  4.2487e+01|  4.2487e+01|  -10.138595|  1.1890e-06|    0.026556|
|        6940|  4.2487e+01|  4.2487e+01|  -10.141785|  1.1803e-06|    0.026554|
|        6950|  4.2487e+01|  4.2487e+01|  -10.144970|  1.1718e-06|    0.026553|
|        6960|  4.2487e+01|  4.2487e+01|  -10.148152|  1.1632e-06|    0.026552|
|        6970|  4.2487e+01|  4.2487e+01|  -10.151332|  1.1548e-06|    0.026551|
|        6980|  4.2487e+01|  4.2487e+01|  -10.154511|  1.1464e-06|    0.026550|
|        6990|  4.2487e+01|  4.2487e+01|  -10.157690|  1.1381e-06|    0.026549|
|        7000|  4.2487e+01|  4.2487e+01|  -10.160868|  1.1298e-06|    0.026548|
+-----------------------------------------------------------------------+
|        File Writing Summary       |              Filename             |
+-----------------------------------------------------------------------+
|SU2 binary restart                 |restart_flow_aoa13.dat             |
|Paraview                           |flow_aoa13.vtu                     |
|Paraview surface                   |surface_flow_aoa13.vtu             |
+-----------------------------------------------------------------------+
+-----------------------------------------------------------------------------+
|  Inner_Iter|     Min CFL|     Max CFL|      rms[P]|  Cauchy[CD]|          CD|
+-----------------------------------------------------------------------------+
|        7010|  4.2487e+01|  4.2487e+01|  -10.164046|  1.1216e-06|    0.026547|
|        7020|  4.2487e+01|  4.2487e+01|  -10.167225|  1.1135e-06|    0.026546|
|        7030|  4.2487e+01|  4.2487e+01|  -10.170405|  1.1054e-06|    0.026545|
|        7040|  4.2487e+01|  4.2487e+01|  -10.173587|  1.0974e-06|    0.026544|
|        7050|  4.2487e+01|  4.2487e+01|  -10.176770|  1.0894e-06|    0.026543|
|        7060|  4.2487e+01|  4.2487e+01|  -10.179956|  1.0815e-06|    0.026542|
|        7070|  4.2487e+01|  4.2487e+01|  -10.183143|  1.0737e-06|    0.026541|
|        7080|  4.2487e+01|  4.2487e+01|  -10.186331|  1.0659e-06|    0.026540|
|        7090|  4.2487e+01|  4.2487e+01|  -10.189520|  1.0582e-06|    0.026539|
|        7100|  4.2487e+01|  4.2487e+01|  -10.192712|  1.0505e-06|    0.026538|
|        7110|  4.2487e+01|  4.2487e+01|  -10.195904|  1.0429e-06|    0.026537|
|        7120|  4.2487e+01|  4.2487e+01|  -10.199098|  1.0354e-06|    0.026536|
|        7130|  4.2487e+01|  4.2487e+01|  -10.202297|  1.0279e-06|    0.026535|
|        7140|  4.2487e+01|  4.2487e+01|  -10.205496|  1.0205e-06|    0.026534|
|        7150|  6.1181e+00|  6.1181e+00|  -10.206000|  1.0106e-06|    0.026534|
|        7153|  1.0572e+01|  1.0572e+01|  -10.213518|  9.9928e-07|    0.026533|

----------------------------- Solver Exit -------------------------------
All convergence criteria satisfied.
+-----------------------------------------------------------------------+
|      Convergence Field     |     Value    |   Criterion  |  Converged |
+-----------------------------------------------------------------------+
|                      rms[P]|      -10.2135|          < -9|         Yes|
|                  Cauchy[CD]|   9.99278e-07|       < 1e-06|         Yes|
+-----------------------------------------------------------------------+
-------------------------------------------------------------------------
+-----------------------------------------------------------------------+
|        File Writing Summary       |              Filename             |
+-----------------------------------------------------------------------+
|SU2 binary restart                 |restart_flow_aoa13.dat             |
|Paraview                           |flow_aoa13.vtu                     |
|Paraview surface                   |surface_flow_aoa13.vtu             |
+-----------------------------------------------------------------------+

------------------------- Solver Postprocessing -------------------------
Deleted CNumerics container.
Deleted CIntegration container.
Deleted CSolver container.
Deleted CIteration container.
Deleted CInterface container.
Deleted CGeometry container.
Deleted CFreeFormDefBox class.
Deleted CSurfaceMovement class.
Deleted CVolumetricMovement class.
Deleted CConfig container.
Deleted nInst container.
Deleted COutput class.
-------------------------------------------------------------------------

------------------------- Exit Success (SU2_CFD) ------------------------

