
-------------------------------------------------------------------------
|    ___ _   _ ___                                                      |
|   / __| | | |_  )   Release 7.4.0 "Blackbird"                         |
|   \__ \ |_| |/ /                                                      |
|   |___/\___//___|   Suite (Computational Fluid Dynamics Code)         |
|                                                                       |
-------------------------------------------------------------------------
| SU2 Project Website: https://su2code.github.io                        |
|                                                                       |
| The SU2 Project is maintained by the SU2 Foundation                   |
| (http://su2foundation.org)                                            |
-------------------------------------------------------------------------
| Copyright 2012-2022, SU2 Contributors                                 |
|                                                                       |
| SU2 is free software; you can redistribute it and/or                  |
| modify it under the terms of the GNU Lesser General Public            |
| License as published by the Free Software Foundation; either          |
| version 2.1 of the License, or (at your option) any later version.    |
|                                                                       |
| SU2 is distributed in the hope that it will be useful,                |
| but WITHOUT ANY WARRANTY; without even the implied warranty of        |
| MERCHANTABILITY or FITNESS FOR A PARTICULAR PURPOSE. See the GNU      |
| Lesser General Public License for more details.                       |
|                                                                       |
| You should have received a copy of the GNU Lesser General Public      |
| License along with SU2. If not, see <http://www.gnu.org/licenses/>.   |
-------------------------------------------------------------------------

Parsing config file for zone 0

----------------- Physical Case Definition ( Zone 0 ) -------------------
Incompressible RANS equations.
Turbulence model: Spalart-Allmaras-noft2
Hybrid RANS/LES: No Hybrid RANS/LES
Reading and writing binary SU2 native restart files.
Read flow solution from: ../../O1/case_A14/restart_flow_aoa14.dat.
Non-Dimensional simulation using intialization values.
The reference area is 1 m^2.
The semi-span will be computed using the max y(3D) value.
The reference length is 1.00898 m.
Reference origin for moment evaluation is (-0.756, 0, 0).
Surface(s) where the force coefficients are evaluated: AIRFOIL.

Surface(s) plotted in the output file: AIRFOIL.
Input mesh file name: ../meshG5/meshG5.su2

--------------- Space Numerical Integration ( Zone 0 ) ------------------
Flux difference splitting (FDS) upwind scheme for the flow inviscid terms.
Second order integration in space, with slope limiter.
Venkatakrishnan slope-limiting method, with constant: 0.056.
The reference element size is: 1. 
Average of gradients with correction (viscous flow terms).
Average of gradients with correction (viscous turbulence terms).
Gradient for upwind reconstruction: unweighted Least-Squares.
Gradient for viscous and source terms: Green-Gauss.

--------------- Time Numerical Integration  ( Zone 0 ) ------------------
Local time stepping (steady state simulation).
Euler implicit method for the flow equations.
FGMRES is used for solving the linear system.
Using a ILU(0) preconditioning.
Convergence criteria of the linear solver: 1e-06.
Max number of linear iterations: 10.
CFL adaptation. Factor down: 0.1, factor up: 1.2,
                lower limit: 1, upper limit: 1000,
                acceptable linear residual: 0.001.
Courant-Friedrichs-Lewy number:        2
Euler implicit time integration for the turbulence model.

------------------ Convergence Criteria  ( Zone 0 ) ---------------------
Maximum number of solver subiterations: 9999.
Begin convergence monitoring at iteration 10.
Residual minimum value: 1e-9.
Cauchy series min. value: 1e-06.
Number of Cauchy elements: 250.
Begin windowed time average at iteration 0.

-------------------- Output Information ( Zone 0 ) ----------------------
File writing frequency: 
+------------------------------------+
|                     File| Frequency|
+------------------------------------+
|                  RESTART|       200|
|                 PARAVIEW|       200|
|         SURFACE_PARAVIEW|       200|
+------------------------------------+
Writing the convergence history file every 1 inner iterations.
Writing the screen convergence history every 10 inner iterations.
The tabular file format is CSV (.csv).
Convergence history file name: history_aoa14.
Forces breakdown file name: forces_breakdown.dat.
Surface file name: surface_flow_aoa14.
Volume file name: flow_aoa14.
Restart file name: restart_flow_aoa14.dat.

------------- Config File Boundary Information ( Zone 0 ) ---------------
+-----------------------------------------------------------------------+
|                        Marker Type|                        Marker Name|
+-----------------------------------------------------------------------+
|                          Far-field|                           FARFIELD|
+-----------------------------------------------------------------------+
|                     Heat flux wall|                            AIRFOIL|
+-----------------------------------------------------------------------+

-------------------- Output Preprocessing ( Zone 0 ) --------------------

WARNING: SURFACE_PRESSURE_DROP can only be computed for at least 2 surfaces (outlet, inlet, ...)

Screen output fields: INNER_ITER, MIN_CFL, MAX_CFL, RMS_PRESSURE, CAUCHY_DRAG, DRAG
History output group(s): INNER_ITER, MIN_CFL, MAX_CFL, RMS_RES, LIFT, DRAG, MOMENT_Z, CAUCHY
Convergence field(s): RMS_PRESSURE, DRAG
Warning: No (valid) fields chosen for time convergence monitoring. Time convergence monitoring inactive.
Volume output fields: COORDINATES, SOLUTION, PRIMITIVE, RESIDUAL, MESH_QUALITY

------------------- Geometry Preprocessing ( Zone 0 ) -------------------
Two dimensional problem.
361479 grid points before partitioning.
360180 volume elements before partitioning.
2 surface markers.
724 boundary elements in index 0 (Marker = AIRFOIL).
1874 boundary elements in index 1 (Marker = FARFIELD).
Executing the partitioning functions.
Building the graph adjacency structure.
Calling ParMETIS... graph partitioning complete (4050 edge cuts).
Distributing ParMETIS coloring.
Rebalancing vertices.
Rebalancing volume element connectivity.
Rebalancing markers and surface elements.
369602 vertices including ghost points. 
364230 interior elements including halo cells. 
364230 quadrilaterals.
Establishing MPI communication patterns.
Setting point connectivity.
Renumbering points (Reverse Cuthill McKee Ordering).
Recomputing point connectivity.
Setting element connectivity.
Checking the numerical grid orientation.
All volume elements are correctly orientend.
There has been a re-orientation of 1305 LINE surface elements.
Identifying edges and vertices.
Setting the control volume structure.
Area of the computational grid: 103207.
Searching for the closest normal neighbors to the surfaces.
Storing a mapping from global to local point index.
Compute the surface curvature.
Max K: 227502. Mean K: 205.598. Standard deviation K: 4719.73.
Checking for periodicity.
Computing mesh quality statistics for the dual control volumes.
+--------------------------------------------------------------+
|           Mesh Quality Metric|        Minimum|        Maximum|
+--------------------------------------------------------------+
|    Orthogonality Angle (deg.)|        75.9136|             90|
|     CV Face Area Aspect Ratio|        1.00002|    3.17894e+06|
|           CV Sub-Volume Ratio|              1|         387.07|
+--------------------------------------------------------------+
Finding max control volume width.
Communicating number of neighbors.
Wetted area = 2.0597 m.
Area projection in the x-plane = 0.121116 m, y-plane = 1.00881 m.
Max. coordinate in the x-direction = 1.00898 m, y-direction = 0.0759837 m.
Min. coordinate in the x-direction = 4.86614e-06 m, y-direction = -0.0451345 m.
Computing wall distances.

-------------------- Solver Preprocessing ( Zone 0 ) --------------------
 Warning: There is no restart file (flow.meta).
 Computation will continue without updating metadata parameters.
Incompressible flow: rho_ref, vel_ref, and temp_ref
are based on the initial values, p_ref = rho_ref*vel_ref^2.
Force coefficients computed using initial values.
The reference area for force coeffs. is 1 m^2.
The reference length for force coeffs. is 1.00898 m.
The pressure is decomposed into thermodynamic and dynamic components.
The initial value of the dynamic pressure is 0.
Mach number: 0.0276747, computed using the Bulk modulus.
For external flows, the initial state is imposed at the far-field.
Angle of attack (deg): 14, computed using the initial velocity.
Side slip angle (deg): 0, computed using the initial velocity.
Reynolds number per meter: 595000, computed using initial values.
Reynolds number is a byproduct of inputs only (not used internally).
SI units only. The grid should be dimensional (meters).
No energy equation.

-- Models:
+------------------------------------------------------------------------------+
|          Viscosity Model|        Conductivity Model|              Fluid Model|
+------------------------------------------------------------------------------+
|       CONSTANT_VISCOSITY|          CONSTANT_PRANDTL|         CONSTANT_DENSITY|
+------------------------------------------------------------------------------+
-- Fluid properties:
+------------------------------------------------------------------------------+
|                  Name|    Dim. value|    Ref. value|      Unit|Non-dim. value|
+------------------------------------------------------------------------------+
|             Viscosity|      1.92e-05|        11.424|   N.s/m^2|   1.68067e-06|
+------------------------------------------------------------------------------+
|        Prandtl (Lam.)|             -|             -|         -|          0.72|
|       Prandtl (Turb.)|             -|             -|         -|           0.9|
+------------------------------------------------------------------------------+
|          Bulk Modulus|        142000|             1|        Pa|        142000|
+------------------------------------------------------------------------------+
-- Initial and free-stream conditions:
+------------------------------------------------------------------------------+
|                  Name|    Dim. value|    Ref. value|      Unit|Non-dim. value|
+------------------------------------------------------------------------------+
|      Dynamic Pressure|             0|       108.757|        Pa|             0|
|        Total Pressure|       54.3783|       108.757|        Pa|           0.5|
|               Density|           1.2|           1.2|    kg/m^3|             1|
|            Velocity-X|       9.23722|       9.52001|       m/s|      0.970296|
|            Velocity-Y|        2.3031|       9.52001|       m/s|      0.241922|
|    Velocity Magnitude|       9.52001|       9.52001|       m/s|             1|
+------------------------------------------------------------------------------+
|             Viscosity|      1.92e-05|        11.424|   N.s/m^2|   1.68067e-06|
|          Conductivity|             -|       3.59314|   W/m^2.K|             -|
|     Turb. Kin. Energy|       1.35946|       90.6305|   m^2/s^2|         0.015|
|     Spec. Dissipation|       8496.61|       9.52001|       1/s|       892.501|
+------------------------------------------------------------------------------+
|           Mach Number|             -|             -|         -|     0.0276747|
|       Reynolds Number|             -|             -|         -|        595000|
+------------------------------------------------------------------------------+
Initialize Jacobian structure (Navier-Stokes). MG level: 0.
Initialize Jacobian structure (SA model).

------------------- Numerics Preprocessing ( Zone 0 ) -------------------

----------------- Integration Preprocessing ( Zone 0 ) ------------------

------------------- Iteration Preprocessing ( Zone 0 ) ------------------
Euler/Navier-Stokes/RANS fluid iteration.

------------------------------ Begin Solver -----------------------------

Simulation Run using the Single-zone Driver
+-----------------------------------------------------------------------------+
|  Inner_Iter|     Min CFL|     Max CFL|      rms[P]|  Cauchy[CD]|          CD|
+-----------------------------------------------------------------------------+
|           0|  2.4000e+00|  2.4000e+00|   -6.427178|  1.0000e+00|    0.105353|
|          10|  1.4860e+01|  1.4860e+01|   -6.414177|  9.4187e-05|    0.102905|
|          20|  5.3247e+01|  5.3247e+01|   -6.779890|  1.6052e-03|    0.065104|
|          30|  1.5899e+01|  1.5899e+01|   -6.850622|  1.8844e-03|    0.058320|
|          40|  8.2037e+00|  8.2037e+00|   -6.755143|  2.0086e-03|    0.061426|
|          50|  5.0795e+01|  5.0795e+01|   -6.800724|  2.0383e-03|    0.062167|
|          60|  2.6209e+01|  2.6209e+01|   -6.870144|  2.0478e-03|    0.062306|
|          70|  1.3523e+01|  1.3523e+01|   -6.820989|  2.1043e-03|    0.060892|
|          80|  6.9778e+01|  6.9778e+01|   -6.859743|  2.1524e-03|    0.059689|
|          90|  1.0048e+01|  1.0048e+01|   -6.926635|  2.2448e-03|    0.061997|
|         100|  6.2215e+01|  6.2215e+01|   -7.024542|  2.2579e-03|    0.062218|
|         110|  3.2101e+01|  3.2101e+01|   -7.101874|  2.2918e-03|    0.061370|
|         120|  1.6564e+01|  1.6564e+01|   -7.124863|  2.3593e-03|    0.059684|
|         130|  8.5465e+00|  8.5465e+00|   -7.083142|  2.4240e-03|    0.058066|
|         140|  5.2917e+01|  5.2917e+01|   -7.124435|  2.4590e-03|    0.057192|
|         150|  1.8961e+01|  1.8961e+01|   -7.136638|  2.4741e-03|    0.056813|
|         160|  9.7836e+00|  9.7836e+00|   -7.168681|  2.4847e-03|    0.057037|
|         170|  5.0481e+01|  5.0481e+01|   -7.166719|  2.5149e-03|    0.057792|
|         180|  6.0577e+00|  6.0577e+00|   -7.155987|  2.5642e-03|    0.059024|
|         190|  3.7508e+01|  3.7508e+01|   -7.151716|  2.5674e-03|    0.059031|
|         200|  1.9353e+01|  1.9353e+01|   -7.151076|  2.5855e-03|    0.058580|
+-----------------------------------------------------------------------+
|        File Writing Summary       |              Filename             |
+-----------------------------------------------------------------------+
|SU2 binary restart                 |restart_flow_aoa14.dat             |
|Paraview                           |flow_aoa14.vtu                     |
|Paraview surface                   |surface_flow_aoa14.vtu             |
+-----------------------------------------------------------------------+
+-----------------------------------------------------------------------------+
|  Inner_Iter|     Min CFL|     Max CFL|      rms[P]|  Cauchy[CD]|          CD|
+-----------------------------------------------------------------------------+
|         210|  4.8157e+01|  4.8157e+01|   -7.206353|  2.6509e-03|    0.056944|
|         220|  1.1983e+01|  1.1983e+01|   -7.250081|  2.6907e-03|    0.055949|
|         230|  5.1525e+01|  5.1525e+01|   -7.231135|  2.7004e-03|    0.055961|
|         240|  5.1525e+01|  5.1525e+01|   -7.250449|  2.7345e-03|    0.056812|
|         250|  5.1525e+01|  5.1525e+01|   -7.257131|  2.7517e-03|    0.056503|
|         260|  5.1525e+01|  5.1525e+01|   -7.284908|  2.6931e-03|    0.055612|
|         270|  5.1525e+01|  5.1525e+01|   -7.260638|  1.2061e-03|    0.055012|
|         280|  5.1525e+01|  5.1525e+01|   -7.296777|  9.5535e-04|    0.054303|
|         290|  5.1525e+01|  5.1525e+01|   -7.372862|  8.6260e-04|    0.053516|
|         300|  1.8462e+01|  1.8462e+01|   -7.383188|  8.4395e-04|    0.053241|
|         310|  9.5261e+00|  9.5261e+00|   -7.343746|  8.3945e-04|    0.053115|
|         320|  5.8983e+01|  5.8983e+01|   -7.341636|  7.8482e-04|    0.053067|
|         330|  3.0434e+01|  3.0434e+01|   -7.336108|  7.3835e-04|    0.053026|
|         340|  5.2590e+01|  5.2590e+01|   -7.363446|  6.6116e-04|    0.052647|
|         350|  2.2613e+01|  2.2613e+01|   -7.409197|  6.5920e-04|    0.052368|
|         360|  1.1668e+01|  1.1668e+01|   -7.443651|  6.4297e-04|    0.051926|
|         370|  5.0169e+01|  5.0169e+01|   -7.427209|  5.9569e-04|    0.051421|
|         380|  5.0169e+01|  5.0169e+01|   -7.371386|  5.5499e-04|    0.050821|
|         390|  5.0169e+01|  5.0169e+01|   -7.448821|  5.3005e-04|    0.050570|
|         400|  1.4980e+01|  1.4980e+01|   -7.529551|  5.2016e-04|    0.050439|
+-----------------------------------------------------------------------+
|        File Writing Summary       |              Filename             |
+-----------------------------------------------------------------------+
|SU2 binary restart                 |restart_flow_aoa14.dat             |
|Paraview                           |flow_aoa14.vtu                     |
|Paraview surface                   |surface_flow_aoa14.vtu             |
+-----------------------------------------------------------------------+
+-----------------------------------------------------------------------------+
|  Inner_Iter|     Min CFL|     Max CFL|      rms[P]|  Cauchy[CD]|          CD|
+-----------------------------------------------------------------------------+
|         410|  7.7295e+00|  7.7295e+00|   -7.484323|  5.1645e-04|    0.050268|
|         420|  4.7859e+01|  4.7859e+01|   -7.480702|  4.9305e-04|    0.050098|
|         430|  2.4694e+01|  2.4694e+01|   -7.456788|  4.5143e-04|    0.049906|
|         440|  1.2742e+01|  1.2742e+01|   -7.449989|  4.5906e-04|    0.049634|
|         450|  6.5745e+00|  6.5745e+00|   -7.468755|  4.5074e-04|    0.049390|
|         460|  4.0707e+01|  4.0707e+01|   -7.497457|  3.9089e-04|    0.049251|
|         470|  2.1004e+01|  2.1004e+01|   -7.537665|  3.5795e-04|    0.049078|
|         480|  5.2265e+01|  5.2265e+01|   -7.527470|  3.6073e-04|    0.048767|
|         490|  5.2265e+01|  5.2265e+01|   -7.486389|  3.3997e-04|    0.048435|
|         500|  7.5261e+00|  7.5261e+00|   -7.543379|  3.2864e-04|    0.048286|
|         510|  4.6600e+01|  4.6600e+01|   -7.586130|  2.9398e-04|    0.048263|
|         520|  2.4045e+01|  2.4045e+01|   -7.627840|  2.7081e-04|    0.048242|
|         530|  1.2406e+01|  1.2406e+01|   -7.632535|  2.4453e-04|    0.048190|
|         540|  5.3345e+01|  5.3345e+01|   -7.595117|  2.1793e-04|    0.048068|
|         550|  2.2938e+01|  2.2938e+01|   -7.577802|  2.1256e-04|    0.047927|
|         560|  1.1835e+01|  1.1835e+01|   -7.562879|  2.1392e-04|    0.047767|
|         570|  6.1067e+00|  6.1067e+00|   -7.573778|  2.1845e-04|    0.047605|
|         580|  3.7811e+01|  3.7811e+01|   -7.603608|  2.1926e-04|    0.047544|
|         590|  1.9510e+01|  1.9510e+01|   -7.611762|  2.0697e-04|    0.047473|
|         600|  5.8256e+01|  5.8256e+01|   -7.543754|  1.9836e-04|    0.047409|
+-----------------------------------------------------------------------+
|        File Writing Summary       |              Filename             |
+-----------------------------------------------------------------------+
|SU2 binary restart                 |restart_flow_aoa14.dat             |
|Paraview                           |flow_aoa14.vtu                     |
|Paraview surface                   |surface_flow_aoa14.vtu             |
+-----------------------------------------------------------------------+
+-----------------------------------------------------------------------------+
|  Inner_Iter|     Min CFL|     Max CFL|      rms[P]|  Cauchy[CD]|          CD|
+-----------------------------------------------------------------------------+
|         610|  6.9907e+00|  6.9907e+00|   -7.564021|  1.8339e-04|    0.047341|
|         620|  4.3285e+01|  4.3285e+01|   -7.639627|  1.6376e-04|    0.047327|
|         630|  2.2334e+01|  2.2334e+01|   -7.708456|  1.4032e-04|    0.047313|
|         640|  1.1524e+01|  1.1524e+01|   -7.619718|  1.3061e-04|    0.047305|
|         650|  5.9460e+01|  5.9460e+01|   -7.648704|  1.2587e-04|    0.047292|
|         660|  5.9460e+01|  5.9460e+01|   -7.665331|  1.2250e-04|    0.047205|
|         670|  5.9460e+01|  5.9460e+01|   -7.682618|  1.2013e-04|    0.047095|
|         680|  1.7755e+01|  1.7755e+01|   -7.713656|  1.1392e-04|    0.047058|
|         690|  9.1611e+00|  9.1611e+00|   -7.588480|  1.0331e-04|    0.047051|
|         700|  5.6723e+01|  5.6723e+01|   -7.690642|  9.3846e-05|    0.047059|
|         710|  2.9268e+01|  2.9268e+01|   -7.749953|  8.8878e-05|    0.047073|
|         720|  6.0690e+01|  6.0690e+01|   -7.729311|  8.4077e-05|    0.047126|
|         730|  6.0690e+01|  6.0690e+01|   -7.704049|  7.4244e-05|    0.047191|
|         740|  6.0690e+01|  6.0690e+01|   -7.733258|  6.2261e-05|    0.047224|
|         750|  1.8122e+01|  1.8122e+01|   -7.837079|  5.6394e-05|    0.047225|
|         760|  9.3505e+00|  9.3505e+00|   -7.733923|  5.5624e-05|    0.047222|
|         770|  5.7896e+01|  5.7896e+01|   -7.806065|  5.4925e-05|    0.047223|
|         780|  2.0745e+01|  2.0745e+01|   -7.822201|  5.3082e-05|    0.047229|
|         790|  1.0704e+01|  1.0704e+01|   -7.792149|  4.9170e-05|    0.047253|
|         800|  5.5230e+01|  5.5230e+01|   -7.831949|  4.4917e-05|    0.047288|
+-----------------------------------------------------------------------+
|        File Writing Summary       |              Filename             |
+-----------------------------------------------------------------------+
|SU2 binary restart                 |restart_flow_aoa14.dat             |
|Paraview                           |flow_aoa14.vtu                     |
|Paraview surface                   |surface_flow_aoa14.vtu             |
+-----------------------------------------------------------------------+
+-----------------------------------------------------------------------------+
|  Inner_Iter|     Min CFL|     Max CFL|      rms[P]|  Cauchy[CD]|          CD|
+-----------------------------------------------------------------------------+
|         810|  5.5230e+01|  5.5230e+01|   -7.838108|  4.2230e-05|    0.047380|
|         820|  5.5230e+01|  5.5230e+01|   -7.844494|  3.9384e-05|    0.047471|
|         830|  5.5230e+01|  5.5230e+01|   -7.868398|  3.9431e-05|    0.047533|
|         840|  5.5230e+01|  5.5230e+01|   -7.855304|  3.8185e-05|    0.047573|
|         850|  5.5230e+01|  5.5230e+01|   -7.833208|  3.7376e-05|    0.047617|
|         860|  5.5230e+01|  5.5230e+01|   -7.833807|  3.7369e-05|    0.047684|
|         870|  5.5230e+01|  5.5230e+01|   -7.824819|  4.0288e-05|    0.047771|
|         880|  5.5230e+01|  5.5230e+01|   -7.822533|  4.3214e-05|    0.047859|
|         890|  5.5230e+01|  5.5230e+01|   -7.822334|  4.5766e-05|    0.047930|
|         900|  5.5230e+01|  5.5230e+01|   -7.808309|  4.7520e-05|    0.047987|
|         910|  5.5230e+01|  5.5230e+01|   -7.804339|  4.6229e-05|    0.048042|
|         920|  5.5230e+01|  5.5230e+01|   -7.806047|  4.4295e-05|    0.048104|
|         930|  6.6276e+01|  6.6276e+01|   -7.806574|  4.5602e-05|    0.048173|
|         940|  3.4197e+01|  3.4197e+01|   -7.847452|  4.6349e-05|    0.048199|
|         950|  1.7645e+01|  1.7645e+01|   -7.860266|  4.7347e-05|    0.048232|
|         960|  9.1044e+00|  9.1044e+00|   -7.775652|  4.8181e-05|    0.048267|
|         970|  5.6372e+01|  5.6372e+01|   -7.832030|  4.7184e-05|    0.048295|
|         980|  5.6372e+01|  5.6372e+01|   -7.798314|  4.6655e-05|    0.048347|
|         990|  5.6372e+01|  5.6372e+01|   -7.797078|  4.7113e-05|    0.048391|
|        1000|  5.6372e+01|  5.6372e+01|   -7.803158|  4.8681e-05|    0.048432|
+-----------------------------------------------------------------------+
|        File Writing Summary       |              Filename             |
+-----------------------------------------------------------------------+
|SU2 binary restart                 |restart_flow_aoa14.dat             |
|Paraview                           |flow_aoa14.vtu                     |
|Paraview surface                   |surface_flow_aoa14.vtu             |
+-----------------------------------------------------------------------+
+-----------------------------------------------------------------------------+
|  Inner_Iter|     Min CFL|     Max CFL|      rms[P]|  Cauchy[CD]|          CD|
+-----------------------------------------------------------------------------+
|        1010|  5.6372e+01|  5.6372e+01|   -7.812208|  5.0261e-05|    0.048476|
|        1020|  5.6372e+01|  5.6372e+01|   -7.820017|  5.1888e-05|    0.048520|
|        1030|  5.6372e+01|  5.6372e+01|   -7.823581|  5.3208e-05|    0.048559|
|        1040|  5.6372e+01|  5.6372e+01|   -7.831910|  5.3444e-05|    0.048589|
|        1050|  5.6372e+01|  5.6372e+01|   -7.847860|  5.2859e-05|    0.048609|
|        1060|  1.6833e+01|  1.6833e+01|   -7.873698|  4.9436e-05|    0.048616|
|        1070|  8.6853e+00|  8.6853e+00|   -7.859309|  4.6208e-05|    0.048626|
|        1080|  5.3777e+01|  5.3777e+01|   -7.894079|  4.3867e-05|    0.048630|
|        1090|  2.7748e+01|  2.7748e+01|   -7.905791|  4.2359e-05|    0.048632|
|        1100|  5.7538e+01|  5.7538e+01|   -7.905385|  4.0939e-05|    0.048640|
|        1110|  5.7538e+01|  5.7538e+01|   -7.918163|  3.8516e-05|    0.048647|
|        1120|  5.7538e+01|  5.7538e+01|   -7.930528|  3.5238e-05|    0.048642|
|        1130|  5.7538e+01|  5.7538e+01|   -7.941562|  3.2388e-05|    0.048626|
|        1140|  5.7538e+01|  5.7538e+01|   -7.951377|  3.0507e-05|    0.048601|
|        1150|  5.7538e+01|  5.7538e+01|   -7.958719|  2.9395e-05|    0.048573|
|        1160|  5.7538e+01|  5.7538e+01|   -7.962291|  2.8412e-05|    0.048542|
|        1170|  5.7538e+01|  5.7538e+01|   -7.961892|  2.7344e-05|    0.048507|
|        1180|  5.7538e+01|  5.7538e+01|   -7.958970|  2.6499e-05|    0.048459|
|        1190|  5.7538e+01|  5.7538e+01|   -7.957147|  2.7869e-05|    0.048399|
|        1200|  5.7538e+01|  5.7538e+01|   -7.958525|  2.9282e-05|    0.048331|
+-----------------------------------------------------------------------+
|        File Writing Summary       |              Filename             |
+-----------------------------------------------------------------------+
|SU2 binary restart                 |restart_flow_aoa14.dat             |
|Paraview                           |flow_aoa14.vtu                     |
|Paraview surface                   |surface_flow_aoa14.vtu             |
+-----------------------------------------------------------------------+
+-----------------------------------------------------------------------------+
|  Inner_Iter|     Min CFL|     Max CFL|      rms[P]|  Cauchy[CD]|          CD|
+-----------------------------------------------------------------------------+
|        1210|  5.7538e+01|  5.7538e+01|   -7.962197|  3.0664e-05|    0.048261|
|        1220|  5.7538e+01|  5.7538e+01|   -7.965626|  3.2505e-05|    0.048187|
|        1230|  5.7538e+01|  5.7538e+01|   -7.966807|  3.3622e-05|    0.048107|
|        1240|  5.7538e+01|  5.7538e+01|   -7.966740|  3.5411e-05|    0.048018|
|        1250|  5.7538e+01|  5.7538e+01|   -7.967452|  3.7659e-05|    0.047921|
|        1260|  5.7538e+01|  5.7538e+01|   -7.969615|  3.9991e-05|    0.047819|
|        1270|  5.7538e+01|  5.7538e+01|   -7.972288|  4.2382e-05|    0.047715|
|        1280|  5.7538e+01|  5.7538e+01|   -7.974330|  4.5063e-05|    0.047609|
|        1290|  5.7538e+01|  5.7538e+01|   -7.975834|  4.8274e-05|    0.047499|
|        1300|  5.7538e+01|  5.7538e+01|   -7.977474|  5.2077e-05|    0.047384|
|        1310|  8.2854e+00|  8.2854e+00|   -7.975517|  5.6212e-05|    0.047273|
|        1320|  5.1301e+01|  5.1301e+01|   -7.994891|  5.7562e-05|    0.047230|
|        1330|  2.6470e+01|  2.6470e+01|   -8.002590|  5.9159e-05|    0.047186|
|        1340|  1.3658e+01|  1.3658e+01|   -7.998466|  6.1505e-05|    0.047125|
|        1350|  5.8727e+01|  5.8727e+01|   -7.992810|  6.3964e-05|    0.047055|
|        1360|  5.8727e+01|  5.8727e+01|   -7.991001|  6.8628e-05|    0.046932|
|        1370|  5.8727e+01|  5.8727e+01|   -7.994729|  7.3384e-05|    0.046808|
|        1380|  5.8727e+01|  5.8727e+01|   -7.999343|  7.7715e-05|    0.046683|
|        1390|  5.8727e+01|  5.8727e+01|   -8.006402|  8.1592e-05|    0.046562|
|        1400|  1.7536e+01|  1.7536e+01|   -8.016620|  8.3405e-05|    0.046487|
+-----------------------------------------------------------------------+
|        File Writing Summary       |              Filename             |
+-----------------------------------------------------------------------+
|SU2 binary restart                 |restart_flow_aoa14.dat             |
|Paraview                           |flow_aoa14.vtu                     |
|Paraview surface                   |surface_flow_aoa14.vtu             |
+-----------------------------------------------------------------------+
+-----------------------------------------------------------------------------+
|  Inner_Iter|     Min CFL|     Max CFL|      rms[P]|  Cauchy[CD]|          CD|
+-----------------------------------------------------------------------------+
|        1410|  9.0481e+00|  9.0481e+00|   -8.010705|  8.4533e-05|    0.046429|
|        1420|  5.6024e+01|  5.6024e+01|   -8.033593|  8.4980e-05|    0.046382|
|        1430|  2.8907e+01|  2.8907e+01|   -8.038126|  8.4983e-05|    0.046334|
|        1440|  5.9941e+01|  5.9941e+01|   -8.039964|  8.6589e-05|    0.046234|
|        1450|  5.9941e+01|  5.9941e+01|   -8.055540|  8.8620e-05|    0.046116|
|        1460|  5.9941e+01|  5.9941e+01|   -8.075215|  9.0607e-05|    0.045996|
|        1470|  5.9941e+01|  5.9941e+01|   -8.099096|  9.2255e-05|    0.045881|
|        1480|  5.9941e+01|  5.9941e+01|   -8.126555|  9.3433e-05|    0.045772|
|        1490|  5.9941e+01|  5.9941e+01|   -8.156843|  9.4183e-05|    0.045664|
|        1500|  5.9941e+01|  5.9941e+01|   -8.189020|  9.4543e-05|    0.045558|
|        1510|  5.9941e+01|  5.9941e+01|   -8.221585|  9.4684e-05|    0.045452|
|        1520|  5.9941e+01|  5.9941e+01|   -8.253140|  9.4726e-05|    0.045347|
|        1530|  5.9941e+01|  5.9941e+01|   -8.281703|  9.4582e-05|    0.045244|
|        1540|  5.9941e+01|  5.9941e+01|   -8.305322|  9.4173e-05|    0.045144|
|        1550|  5.9941e+01|  5.9941e+01|   -8.322087|  9.3547e-05|    0.045045|
|        1560|  5.9941e+01|  5.9941e+01|   -8.330903|  9.3104e-05|    0.044945|
|        1570|  5.9941e+01|  5.9941e+01|   -8.332551|  9.5331e-05|    0.044846|
|        1580|  2.1478e+01|  2.1478e+01|   -8.394184|  9.5277e-05|    0.044804|
|        1590|  1.1082e+01|  1.1082e+01|   -8.310786|  9.4736e-05|    0.044756|
|        1600|  5.7182e+01|  5.7182e+01|   -8.353632|  9.3776e-05|    0.044710|
+-----------------------------------------------------------------------+
|        File Writing Summary       |              Filename             |
+-----------------------------------------------------------------------+
|SU2 binary restart                 |restart_flow_aoa14.dat             |
|Paraview                           |flow_aoa14.vtu                     |
|Paraview surface                   |surface_flow_aoa14.vtu             |
+-----------------------------------------------------------------------+
+-----------------------------------------------------------------------------+
|  Inner_Iter|     Min CFL|     Max CFL|      rms[P]|  Cauchy[CD]|          CD|
+-----------------------------------------------------------------------------+
|        1610|  5.7182e+01|  5.7182e+01|   -8.329261|  9.2586e-05|    0.044617|
|        1620|  5.7182e+01|  5.7182e+01|   -8.315820|  9.1345e-05|    0.044524|
|        1630|  5.7182e+01|  5.7182e+01|   -8.300927|  9.0164e-05|    0.044429|
|        1640|  5.7182e+01|  5.7182e+01|   -8.287710|  8.9051e-05|    0.044335|
|        1650|  5.7182e+01|  5.7182e+01|   -8.274772|  8.9795e-05|    0.044243|
|        1660|  5.7182e+01|  5.7182e+01|   -8.263884|  9.1174e-05|    0.044150|
|        1670|  5.7182e+01|  5.7182e+01|   -8.255419|  9.2985e-05|    0.044058|
|        1680|  5.7182e+01|  5.7182e+01|   -8.249897|  9.4765e-05|    0.043965|
|        1690|  5.7182e+01|  5.7182e+01|   -8.246561|  9.4470e-05|    0.043872|
|        1700|  5.7182e+01|  5.7182e+01|   -8.245120|  9.3435e-05|    0.043780|
|        1710|  5.7182e+01|  5.7182e+01|   -8.245987|  9.2282e-05|    0.043689|
|        1720|  5.7182e+01|  5.7182e+01|   -8.249746|  9.1309e-05|    0.043598|
|        1730|  5.7182e+01|  5.7182e+01|   -8.256294|  9.0522e-05|    0.043509|
|        1740|  5.7182e+01|  5.7182e+01|   -8.265387|  8.9771e-05|    0.043420|
|        1750|  5.7182e+01|  5.7182e+01|   -8.277223|  8.9041e-05|    0.043332|
|        1760|  8.2342e+00|  8.2342e+00|   -8.271636|  8.7674e-05|    0.043260|
|        1770|  5.0984e+01|  5.0984e+01|   -8.311933|  8.4732e-05|    0.043229|
|        1780|  2.6307e+01|  2.6307e+01|   -8.319163|  8.1904e-05|    0.043197|
|        1790|  5.4549e+01|  5.4549e+01|   -8.320203|  8.0647e-05|    0.043128|
|        1800|  5.4549e+01|  5.4549e+01|   -8.341877|  7.9841e-05|    0.043049|
+-----------------------------------------------------------------------+
|        File Writing Summary       |              Filename             |
+-----------------------------------------------------------------------+
|SU2 binary restart                 |restart_flow_aoa14.dat             |
|Paraview                           |flow_aoa14.vtu                     |
|Paraview surface                   |surface_flow_aoa14.vtu             |
+-----------------------------------------------------------------------+
+-----------------------------------------------------------------------------+
|  Inner_Iter|     Min CFL|     Max CFL|      rms[P]|  Cauchy[CD]|          CD|
+-----------------------------------------------------------------------------+
|        1810|  5.4549e+01|  5.4549e+01|   -8.362238|  7.9031e-05|    0.042970|
|        1820|  5.4549e+01|  5.4549e+01|   -8.385825|  7.8222e-05|    0.042891|
|        1830|  5.4549e+01|  5.4549e+01|   -8.411603|  7.9583e-05|    0.042814|
|        1840|  5.4549e+01|  5.4549e+01|   -8.437485|  8.0678e-05|    0.042740|
|        1850|  1.9546e+01|  1.9546e+01|   -8.471795|  8.0115e-05|    0.042708|
|        1860|  1.0085e+01|  1.0085e+01|   -8.452397|  7.7844e-05|    0.042671|
|        1870|  5.2038e+01|  5.2038e+01|   -8.489465|  7.5521e-05|    0.042636|
|        1880|  5.2038e+01|  5.2038e+01|   -8.502014|  7.4469e-05|    0.042567|
|        1890|  5.2038e+01|  5.2038e+01|   -8.523286|  7.3464e-05|    0.042499|
|        1900|  5.2038e+01|  5.2038e+01|   -8.535161|  7.2532e-05|    0.042429|
|        1910|  5.2038e+01|  5.2038e+01|   -8.545947|  7.1551e-05|    0.042361|
|        1920|  5.2038e+01|  5.2038e+01|   -8.549869|  7.0530e-05|    0.042294|
|        1930|  5.2038e+01|  5.2038e+01|   -8.550490|  6.9474e-05|    0.042228|
|        1940|  5.2038e+01|  5.2038e+01|   -8.547739|  6.8377e-05|    0.042163|
|        1950|  5.2038e+01|  5.2038e+01|   -8.543018|  6.7291e-05|    0.042097|
|        1960|  5.2038e+01|  5.2038e+01|   -8.536859|  6.6261e-05|    0.042032|
|        1970|  5.2038e+01|  5.2038e+01|   -8.530479|  6.5267e-05|    0.041967|
|        1980|  5.2038e+01|  5.2038e+01|   -8.525356|  6.4270e-05|    0.041902|
|        1990|  5.2038e+01|  5.2038e+01|   -8.521871|  6.3276e-05|    0.041838|
|        2000|  5.2038e+01|  5.2038e+01|   -8.519715|  6.2309e-05|    0.041774|
+-----------------------------------------------------------------------+
|        File Writing Summary       |              Filename             |
+-----------------------------------------------------------------------+
|SU2 binary restart                 |restart_flow_aoa14.dat             |
|Paraview                           |flow_aoa14.vtu                     |
|Paraview surface                   |surface_flow_aoa14.vtu             |
+-----------------------------------------------------------------------+
+-----------------------------------------------------------------------------+
|  Inner_Iter|     Min CFL|     Max CFL|      rms[P]|  Cauchy[CD]|          CD|
+-----------------------------------------------------------------------------+
|        2010|  5.2038e+01|  5.2038e+01|   -8.518559|  6.1997e-05|    0.041710|
|        2020|  1.0791e+01|  1.0791e+01|   -8.524359|  6.2394e-05|    0.041669|
|        2030|  5.5677e+00|  5.5677e+00|   -8.527554|  6.2474e-05|    0.041635|
|        2040|  3.4474e+01|  3.4474e+01|   -8.540093|  6.0439e-05|    0.041617|
|        2050|  4.9642e+01|  4.9642e+01|   -8.526509|  5.9521e-05|    0.041561|
|        2060|  4.9642e+01|  4.9642e+01|   -8.530850|  5.8714e-05|    0.041502|
|        2070|  4.9642e+01|  4.9642e+01|   -8.534371|  5.7932e-05|    0.041442|
|        2080|  4.9642e+01|  4.9642e+01|   -8.538369|  5.7256e-05|    0.041383|
|        2090|  4.9642e+01|  4.9642e+01|   -8.545529|  5.6614e-05|    0.041324|
|        2100|  4.9642e+01|  4.9642e+01|   -8.552467|  5.7649e-05|    0.041266|
|        2110|  4.9642e+01|  4.9642e+01|   -8.560069|  5.8483e-05|    0.041209|
|        2120|  4.9642e+01|  4.9642e+01|   -8.567280|  5.9365e-05|    0.041152|
|        2130|  4.9642e+01|  4.9642e+01|   -8.575145|  5.8862e-05|    0.041096|
|        2140|  4.9642e+01|  4.9642e+01|   -8.583251|  5.8367e-05|    0.041040|
|        2150|  1.0294e+01|  1.0294e+01|   -8.598304|  5.7062e-05|    0.041003|
|        2160|  5.3114e+00|  5.3114e+00|   -8.602372|  5.5539e-05|    0.040972|
|        2170|  3.2887e+01|  3.2887e+01|   -8.618184|  5.3499e-05|    0.040957|
|        2180|  4.7357e+01|  4.7357e+01|   -8.606034|  5.2844e-05|    0.040907|
|        2190|  4.7357e+01|  4.7357e+01|   -8.614634|  5.2299e-05|    0.040855|
|        2200|  4.7357e+01|  4.7357e+01|   -8.619327|  5.1769e-05|    0.040803|
+-----------------------------------------------------------------------+
|        File Writing Summary       |              Filename             |
+-----------------------------------------------------------------------+
|SU2 binary restart                 |restart_flow_aoa14.dat             |
|Paraview                           |flow_aoa14.vtu                     |
|Paraview surface                   |surface_flow_aoa14.vtu             |
+-----------------------------------------------------------------------+
+-----------------------------------------------------------------------------+
|  Inner_Iter|     Min CFL|     Max CFL|      rms[P]|  Cauchy[CD]|          CD|
+-----------------------------------------------------------------------------+
|        2210|  4.7357e+01|  4.7357e+01|   -8.623511|  5.1250e-05|    0.040751|
|        2220|  4.7357e+01|  4.7357e+01|   -8.629160|  5.0720e-05|    0.040699|
|        2230|  4.7357e+01|  4.7357e+01|   -8.632704|  5.0195e-05|    0.040647|
|        2240|  4.7357e+01|  4.7357e+01|   -8.636196|  4.9683e-05|    0.040596|
|        2250|  4.7357e+01|  4.7357e+01|   -8.638369|  4.9175e-05|    0.040545|
|        2260|  4.7357e+01|  4.7357e+01|   -8.639883|  4.8659e-05|    0.040494|
|        2270|  4.7357e+01|  4.7357e+01|   -8.640772|  4.9032e-05|    0.040443|
|        2280|  4.7357e+01|  4.7357e+01|   -8.641382|  4.9722e-05|    0.040392|
|        2290|  4.7357e+01|  4.7357e+01|   -8.641982|  5.1065e-05|    0.040340|
|        2300|  4.7357e+01|  4.7357e+01|   -8.642259|  5.0858e-05|    0.040289|
|        2310|  4.7357e+01|  4.7357e+01|   -8.642261|  5.0530e-05|    0.040238|
|        2320|  4.7357e+01|  4.7357e+01|   -8.642210|  5.0190e-05|    0.040188|
|        2330|  4.7357e+01|  4.7357e+01|   -8.642484|  4.9839e-05|    0.040137|
|        2340|  4.7357e+01|  4.7357e+01|   -8.643326|  4.9521e-05|    0.040086|
|        2350|  4.7357e+01|  4.7357e+01|   -8.644838|  4.9241e-05|    0.040035|
|        2360|  5.6828e+00|  5.6828e+00|   -8.647027|  4.8791e-05|    0.039989|
|        2370|  3.5187e+01|  3.5187e+01|   -8.664818|  4.7161e-05|    0.039973|
|        2380|  1.8155e+01|  1.8155e+01|   -8.666300|  4.5745e-05|    0.039952|
|        2390|  4.5177e+01|  4.5177e+01|   -8.655277|  4.5019e-05|    0.039914|
|        2400|  4.5177e+01|  4.5177e+01|   -8.657401|  4.5467e-05|    0.039866|
+-----------------------------------------------------------------------+
|        File Writing Summary       |              Filename             |
+-----------------------------------------------------------------------+
|SU2 binary restart                 |restart_flow_aoa14.dat             |
|Paraview                           |flow_aoa14.vtu                     |
|Paraview surface                   |surface_flow_aoa14.vtu             |
+-----------------------------------------------------------------------+
+-----------------------------------------------------------------------------+
|  Inner_Iter|     Min CFL|     Max CFL|      rms[P]|  Cauchy[CD]|          CD|
+-----------------------------------------------------------------------------+
|        2410|  4.5177e+01|  4.5177e+01|   -8.661873|  4.6172e-05|    0.039818|
|        2420|  4.5177e+01|  4.5177e+01|   -8.664510|  4.7479e-05|    0.039770|
|        2430|  4.5177e+01|  4.5177e+01|   -8.669195|  4.7431e-05|    0.039721|
|        2440|  4.5177e+01|  4.5177e+01|   -8.673846|  4.7268e-05|    0.039673|
|        2450|  4.5177e+01|  4.5177e+01|   -8.678341|  4.7090e-05|    0.039626|
|        2460|  4.5177e+01|  4.5177e+01|   -8.682770|  4.6890e-05|    0.039579|
|        2470|  4.5177e+01|  4.5177e+01|   -8.686696|  4.6686e-05|    0.039531|
|        2480|  4.5177e+01|  4.5177e+01|   -8.690529|  4.6489e-05|    0.039485|
|        2490|  4.5177e+01|  4.5177e+01|   -8.694143|  4.6305e-05|    0.039438|
|        2500|  4.5177e+01|  4.5177e+01|   -8.697649|  4.6132e-05|    0.039391|
|        2510|  4.5177e+01|  4.5177e+01|   -8.700837|  4.5964e-05|    0.039345|
|        2520|  4.5177e+01|  4.5177e+01|   -8.703344|  4.5776e-05|    0.039299|
|        2530|  4.5177e+01|  4.5177e+01|   -8.705267|  4.5560e-05|    0.039253|
|        2540|  4.5177e+01|  4.5177e+01|   -8.706985|  4.5330e-05|    0.039207|
|        2550|  4.5177e+01|  4.5177e+01|   -8.708866|  4.5097e-05|    0.039162|
|        2560|  4.5177e+01|  4.5177e+01|   -8.710872|  4.4868e-05|    0.039117|
|        2570|  4.5177e+01|  4.5177e+01|   -8.712678|  4.4638e-05|    0.039072|
|        2580|  4.5177e+01|  4.5177e+01|   -8.714171|  4.4397e-05|    0.039027|
|        2590|  4.5177e+01|  4.5177e+01|   -8.715487|  4.4140e-05|    0.038983|
|        2600|  4.5177e+00|  4.5177e+00|   -8.717007|  4.3871e-05|    0.038938|
+-----------------------------------------------------------------------+
|        File Writing Summary       |              Filename             |
+-----------------------------------------------------------------------+
|SU2 binary restart                 |restart_flow_aoa14.dat             |
|Paraview                           |flow_aoa14.vtu                     |
|Paraview surface                   |surface_flow_aoa14.vtu             |
+-----------------------------------------------------------------------+
+-----------------------------------------------------------------------------+
|  Inner_Iter|     Min CFL|     Max CFL|      rms[P]|  Cauchy[CD]|          CD|
+-----------------------------------------------------------------------------+
|        2610|  2.7972e+01|  2.7972e+01|   -8.735545|  4.2489e-05|    0.038927|
|        2620|  1.4433e+01|  1.4433e+01|   -8.737167|  4.2621e-05|    0.038907|
|        2630|  4.3097e+01|  4.3097e+01|   -8.724689|  4.3004e-05|    0.038877|
|        2640|  4.3097e+01|  4.3097e+01|   -8.725575|  4.3140e-05|    0.038836|
|        2650|  4.3097e+01|  4.3097e+01|   -8.728430|  4.2877e-05|    0.038794|
|        2660|  4.3097e+01|  4.3097e+01|   -8.730434|  4.2621e-05|    0.038753|
|        2670|  4.3097e+01|  4.3097e+01|   -8.732598|  4.2351e-05|    0.038711|
|        2680|  4.3097e+01|  4.3097e+01|   -8.735503|  4.2070e-05|    0.038670|
|        2690|  4.3097e+01|  4.3097e+01|   -8.738081|  4.1788e-05|    0.038629|
|        2700|  4.3097e+01|  4.3097e+01|   -8.741114|  4.1516e-05|    0.038588|
|        2710|  4.3097e+01|  4.3097e+01|   -8.744433|  4.1248e-05|    0.038547|
|        2720|  4.3097e+01|  4.3097e+01|   -8.748057|  4.0979e-05|    0.038507|
|        2730|  4.3097e+01|  4.3097e+01|   -8.751906|  4.0718e-05|    0.038467|
|        2740|  4.3097e+01|  4.3097e+01|   -8.755747|  4.0461e-05|    0.038426|
|        2750|  4.3097e+01|  4.3097e+01|   -8.759582|  4.0200e-05|    0.038386|
|        2760|  4.3097e+01|  4.3097e+01|   -8.763326|  3.9940e-05|    0.038346|
|        2770|  4.3097e+01|  4.3097e+01|   -8.767101|  3.9686e-05|    0.038306|
|        2780|  4.3097e+01|  4.3097e+01|   -8.771056|  3.9437e-05|    0.038267|
|        2790|  4.3097e+01|  4.3097e+01|   -8.775285|  3.9191e-05|    0.038227|
|        2800|  4.3097e+01|  4.3097e+01|   -8.779663|  3.8948e-05|    0.038188|
+-----------------------------------------------------------------------+
|        File Writing Summary       |              Filename             |
+-----------------------------------------------------------------------+
|SU2 binary restart                 |restart_flow_aoa14.dat             |
|Paraview                           |flow_aoa14.vtu                     |
|Paraview surface                   |surface_flow_aoa14.vtu             |
+-----------------------------------------------------------------------+
+-----------------------------------------------------------------------------+
|  Inner_Iter|     Min CFL|     Max CFL|      rms[P]|  Cauchy[CD]|          CD|
+-----------------------------------------------------------------------------+
|        2810|  4.3097e+01|  4.3097e+01|   -8.783929|  3.8707e-05|    0.038149|
|        2820|  4.3097e+01|  4.3097e+01|   -8.787950|  3.8467e-05|    0.038110|
|        2830|  4.3097e+01|  4.3097e+01|   -8.791721|  3.8229e-05|    0.038071|
|        2840|  4.3097e+01|  4.3097e+01|   -8.795281|  3.7993e-05|    0.038033|
|        2850|  4.3097e+01|  4.3097e+01|   -8.798638|  3.7760e-05|    0.037994|
|        2860|  4.3097e+01|  4.3097e+01|   -8.801839|  3.8819e-05|    0.037956|
|        2870|  4.3097e+01|  4.3097e+01|   -8.804967|  3.9563e-05|    0.037918|
|        2880|  4.3097e+01|  4.3097e+01|   -8.808006|  3.9863e-05|    0.037880|
|        2890|  4.3097e+01|  4.3097e+01|   -8.810827|  3.9710e-05|    0.037843|
|        2900|  4.3097e+01|  4.3097e+01|   -8.813243|  3.9550e-05|    0.037805|
|        2910|  4.3097e+01|  4.3097e+01|   -8.815153|  3.9379e-05|    0.037768|
|        2920|  4.3097e+01|  4.3097e+01|   -8.816662|  3.9198e-05|    0.037731|
|        2930|  4.3097e+01|  4.3097e+01|   -8.817968|  3.9017e-05|    0.037694|
|        2940|  4.3097e+01|  4.3097e+01|   -8.819253|  3.8844e-05|    0.037658|
|        2950|  4.3097e+01|  4.3097e+01|   -8.820506|  3.8673e-05|    0.037621|
|        2960|  4.3097e+01|  4.3097e+01|   -8.821625|  3.8501e-05|    0.037585|
|        2970|  4.3097e+01|  4.3097e+01|   -8.822518|  3.8333e-05|    0.037549|
|        2980|  4.3097e+01|  4.3097e+01|   -8.823251|  3.8164e-05|    0.037513|
|        2990|  4.3097e+01|  4.3097e+01|   -8.823934|  3.7985e-05|    0.037477|
|        3000|  4.3097e+01|  4.3097e+01|   -8.824654|  3.7800e-05|    0.037441|
+-----------------------------------------------------------------------+
|        File Writing Summary       |              Filename             |
+-----------------------------------------------------------------------+
|SU2 binary restart                 |restart_flow_aoa14.dat             |
|Paraview                           |flow_aoa14.vtu                     |
|Paraview surface                   |surface_flow_aoa14.vtu             |
+-----------------------------------------------------------------------+
+-----------------------------------------------------------------------------+
|  Inner_Iter|     Min CFL|     Max CFL|      rms[P]|  Cauchy[CD]|          CD|
+-----------------------------------------------------------------------------+
|        3010|  4.3097e+01|  4.3097e+01|   -8.825501|  3.7620e-05|    0.037406|
|        3020|  4.3097e+01|  4.3097e+01|   -8.826488|  3.7442e-05|    0.037370|
|        3030|  4.3097e+00|  4.3097e+00|   -8.827579|  3.7265e-05|    0.037335|
|        3040|  2.6684e+01|  2.6684e+01|   -8.845375|  3.6064e-05|    0.037326|
|        3050|  1.3769e+01|  1.3769e+01|   -8.846013|  3.5115e-05|    0.037310|
|        3060|  4.1113e+01|  4.1113e+01|   -8.833429|  3.4516e-05|    0.037286|
|        3070|  4.1113e+01|  4.1113e+01|   -8.833468|  3.4273e-05|    0.037253|
|        3080|  4.1113e+01|  4.1113e+01|   -8.834758|  3.4039e-05|    0.037220|
|        3090|  4.1113e+01|  4.1113e+01|   -8.835543|  3.3811e-05|    0.037188|
|        3100|  4.1113e+01|  4.1113e+01|   -8.836462|  3.3593e-05|    0.037155|
|        3110|  4.1113e+01|  4.1113e+01|   -8.838072|  3.3380e-05|    0.037122|
|        3120|  4.1113e+01|  4.1113e+01|   -8.839524|  3.3165e-05|    0.037089|
|        3130|  4.1113e+01|  4.1113e+01|   -8.841035|  3.2946e-05|    0.037057|
|        3140|  4.1113e+01|  4.1113e+01|   -8.842593|  3.2727e-05|    0.037025|
|        3150|  4.1113e+01|  4.1113e+01|   -8.844194|  3.2508e-05|    0.036993|
|        3160|  4.1113e+01|  4.1113e+01|   -8.845814|  3.2289e-05|    0.036961|
|        3170|  4.1113e+01|  4.1113e+01|   -8.847488|  3.2077e-05|    0.036929|
|        3180|  4.1113e+01|  4.1113e+01|   -8.849372|  3.1872e-05|    0.036898|
|        3190|  4.1113e+01|  4.1113e+01|   -8.851351|  3.1667e-05|    0.036866|
|        3200|  4.1113e+01|  4.1113e+01|   -8.853334|  3.1461e-05|    0.036835|
+-----------------------------------------------------------------------+
|        File Writing Summary       |              Filename             |
+-----------------------------------------------------------------------+
|SU2 binary restart                 |restart_flow_aoa14.dat             |
|Paraview                           |flow_aoa14.vtu                     |
|Paraview surface                   |surface_flow_aoa14.vtu             |
+-----------------------------------------------------------------------+
+-----------------------------------------------------------------------------+
|  Inner_Iter|     Min CFL|     Max CFL|      rms[P]|  Cauchy[CD]|          CD|
+-----------------------------------------------------------------------------+
|        3210|  4.1113e+01|  4.1113e+01|   -8.855217|  3.1254e-05|    0.036803|
|        3220|  4.1113e+01|  4.1113e+01|   -8.857040|  3.1048e-05|    0.036772|
|        3230|  4.1113e+01|  4.1113e+01|   -8.858976|  3.0839e-05|    0.036742|
|        3240|  4.1113e+01|  4.1113e+01|   -8.861058|  3.0633e-05|    0.036711|
|        3250|  4.1113e+01|  4.1113e+01|   -8.863233|  3.0431e-05|    0.036680|
|        3260|  4.1113e+01|  4.1113e+01|   -8.865434|  3.0231e-05|    0.036650|
|        3270|  4.1113e+01|  4.1113e+01|   -8.867622|  3.0030e-05|    0.036620|
|        3280|  4.1113e+01|  4.1113e+01|   -8.869752|  2.9827e-05|    0.036590|
|        3290|  4.1113e+01|  4.1113e+01|   -8.871823|  3.0652e-05|    0.036560|
|        3300|  4.1113e+01|  4.1113e+01|   -8.873890|  3.1224e-05|    0.036530|
|        3310|  4.1113e+01|  4.1113e+01|   -8.876059|  3.1446e-05|    0.036500|
|        3320|  4.1113e+01|  4.1113e+01|   -8.878358|  3.1311e-05|    0.036471|
|        3330|  4.1113e+01|  4.1113e+01|   -8.880719|  3.1171e-05|    0.036441|
|        3340|  4.1113e+01|  4.1113e+01|   -8.883060|  3.1030e-05|    0.036412|
|        3350|  4.1113e+01|  4.1113e+01|   -8.885294|  3.0880e-05|    0.036383|
|        3360|  4.1113e+01|  4.1113e+01|   -8.887383|  3.0726e-05|    0.036354|
|        3370|  4.1113e+01|  4.1113e+01|   -8.889410|  3.0574e-05|    0.036325|
|        3380|  4.1113e+01|  4.1113e+01|   -8.891491|  3.0429e-05|    0.036296|
|        3390|  4.1113e+01|  4.1113e+01|   -8.893709|  3.0286e-05|    0.036267|
|        3400|  4.1113e+01|  4.1113e+01|   -8.896068|  3.0147e-05|    0.036239|
+-----------------------------------------------------------------------+
|        File Writing Summary       |              Filename             |
+-----------------------------------------------------------------------+
|SU2 binary restart                 |restart_flow_aoa14.dat             |
|Paraview                           |flow_aoa14.vtu                     |
|Paraview surface                   |surface_flow_aoa14.vtu             |
+-----------------------------------------------------------------------+
+-----------------------------------------------------------------------------+
|  Inner_Iter|     Min CFL|     Max CFL|      rms[P]|  Cauchy[CD]|          CD|
+-----------------------------------------------------------------------------+
|        3410|  4.1113e+01|  4.1113e+01|   -8.898444|  3.0010e-05|    0.036211|
|        3420|  4.1113e+01|  4.1113e+01|   -8.900735|  2.9869e-05|    0.036182|
|        3430|  4.1113e+01|  4.1113e+01|   -8.902896|  2.9724e-05|    0.036154|
|        3440|  4.1113e+01|  4.1113e+01|   -8.904976|  2.9580e-05|    0.036126|
|        3450|  4.1113e+01|  4.1113e+01|   -8.907051|  2.9438e-05|    0.036099|
|        3460|  4.1113e+01|  4.1113e+01|   -8.909202|  2.9298e-05|    0.036071|
|        3470|  4.1113e+01|  4.1113e+01|   -8.911424|  2.9160e-05|    0.036043|
|        3480|  4.1113e+01|  4.1113e+01|   -8.913667|  2.9025e-05|    0.036016|
|        3490|  4.1113e+01|  4.1113e+01|   -8.915857|  2.8889e-05|    0.035989|
|        3500|  4.1113e+01|  4.1113e+01|   -8.917961|  2.8750e-05|    0.035962|
|        3510|  4.1113e+01|  4.1113e+01|   -8.919945|  2.8610e-05|    0.035935|
|        3520|  4.1113e+01|  4.1113e+01|   -8.921875|  2.8473e-05|    0.035908|
|        3530|  4.1113e+01|  4.1113e+01|   -8.923796|  2.8338e-05|    0.035881|
|        3540|  4.1113e+01|  4.1113e+01|   -8.925739|  2.8204e-05|    0.035854|
|        3550|  4.1113e+01|  4.1113e+01|   -8.927681|  2.8071e-05|    0.035828|
|        3560|  4.1113e+01|  4.1113e+01|   -8.929568|  2.7938e-05|    0.035802|
|        3570|  4.1113e+01|  4.1113e+01|   -8.931345|  2.7805e-05|    0.035775|
|        3580|  4.1113e+01|  4.1113e+01|   -8.932987|  2.7671e-05|    0.035749|
|        3590|  4.1113e+01|  4.1113e+01|   -8.934519|  2.7536e-05|    0.035723|
|        3600|  4.1113e+01|  4.1113e+01|   -8.935990|  2.7402e-05|    0.035698|
+-----------------------------------------------------------------------+
|        File Writing Summary       |              Filename             |
+-----------------------------------------------------------------------+
|SU2 binary restart                 |restart_flow_aoa14.dat             |
|Paraview                           |flow_aoa14.vtu                     |
|Paraview surface                   |surface_flow_aoa14.vtu             |
+-----------------------------------------------------------------------+
+-----------------------------------------------------------------------------+
|  Inner_Iter|     Min CFL|     Max CFL|      rms[P]|  Cauchy[CD]|          CD|
+-----------------------------------------------------------------------------+
|        3610|  4.1113e+01|  4.1113e+01|   -8.937449|  2.7269e-05|    0.035672|
|        3620|  4.1113e+01|  4.1113e+01|   -8.938908|  2.7137e-05|    0.035646|
|        3630|  4.1113e+01|  4.1113e+01|   -8.940363|  2.7005e-05|    0.035621|
|        3640|  4.1113e+01|  4.1113e+01|   -8.941761|  2.6873e-05|    0.035596|
|        3650|  4.1113e+01|  4.1113e+01|   -8.943127|  2.6741e-05|    0.035570|
|        3660|  4.1113e+01|  4.1113e+01|   -8.944462|  2.6610e-05|    0.035545|
|        3670|  4.1113e+01|  4.1113e+01|   -8.945767|  2.6479e-05|    0.035521|
|        3680|  4.1113e+01|  4.1113e+01|   -8.947056|  2.6348e-05|    0.035496|
|        3690|  4.1113e+01|  4.1113e+01|   -8.948381|  2.6218e-05|    0.035471|
|        3700|  4.1113e+01|  4.1113e+01|   -8.949724|  2.6089e-05|    0.035446|
|        3710|  4.1113e+01|  4.1113e+01|   -8.951095|  2.5959e-05|    0.035422|
|        3720|  4.1113e+01|  4.1113e+01|   -8.952480|  2.5830e-05|    0.035398|
|        3730|  4.1113e+01|  4.1113e+01|   -8.953880|  2.5702e-05|    0.035374|
|        3740|  4.1113e+01|  4.1113e+01|   -8.955268|  2.5574e-05|    0.035349|
|        3750|  4.1113e+01|  4.1113e+01|   -8.956671|  2.5448e-05|    0.035325|
|        3760|  4.1113e+01|  4.1113e+01|   -8.958120|  2.5322e-05|    0.035302|
|        3770|  4.1113e+01|  4.1113e+01|   -8.959630|  2.5197e-05|    0.035278|
|        3780|  4.1113e+01|  4.1113e+01|   -8.961212|  2.5073e-05|    0.035254|
|        3790|  4.1113e+01|  4.1113e+01|   -8.962866|  2.4950e-05|    0.035231|
|        3800|  4.1113e+01|  4.1113e+01|   -8.964570|  2.4827e-05|    0.035207|
+-----------------------------------------------------------------------+
|        File Writing Summary       |              Filename             |
+-----------------------------------------------------------------------+
|SU2 binary restart                 |restart_flow_aoa14.dat             |
|Paraview                           |flow_aoa14.vtu                     |
|Paraview surface                   |surface_flow_aoa14.vtu             |
+-----------------------------------------------------------------------+
+-----------------------------------------------------------------------------+
|  Inner_Iter|     Min CFL|     Max CFL|      rms[P]|  Cauchy[CD]|          CD|
+-----------------------------------------------------------------------------+
|        3810|  4.1113e+01|  4.1113e+01|   -8.966298|  2.4705e-05|    0.035184|
|        3820|  4.1113e+01|  4.1113e+01|   -8.968039|  2.4583e-05|    0.035161|
|        3830|  4.1113e+01|  4.1113e+01|   -8.969794|  2.4462e-05|    0.035138|
|        3840|  4.1113e+01|  4.1113e+01|   -8.971562|  2.4343e-05|    0.035115|
|        3850|  4.1113e+01|  4.1113e+01|   -8.973353|  2.4224e-05|    0.035092|
|        3860|  4.1113e+01|  4.1113e+01|   -8.975181|  2.4106e-05|    0.035069|
|        3870|  4.1113e+01|  4.1113e+01|   -8.977034|  2.3989e-05|    0.035047|
|        3880|  4.1113e+01|  4.1113e+01|   -8.978923|  2.3873e-05|    0.035024|
|        3890|  4.1113e+01|  4.1113e+01|   -8.980832|  2.3756e-05|    0.035002|
|        3900|  4.1113e+01|  4.1113e+01|   -8.982761|  2.3641e-05|    0.034979|
|        3910|  4.1113e+01|  4.1113e+01|   -8.984694|  2.3525e-05|    0.034957|
|        3920|  4.1113e+01|  4.1113e+01|   -8.986629|  2.3410e-05|    0.034935|
|        3930|  4.1113e+01|  4.1113e+01|   -8.988555|  2.3296e-05|    0.034913|
|        3940|  4.1113e+01|  4.1113e+01|   -8.990477|  2.3182e-05|    0.034891|
|        3950|  4.1113e+01|  4.1113e+01|   -8.992390|  2.3070e-05|    0.034870|
|        3960|  4.1113e+01|  4.1113e+01|   -8.994304|  2.2958e-05|    0.034848|
|        3970|  4.1113e+01|  4.1113e+01|   -8.996221|  2.2847e-05|    0.034827|
|        3980|  4.1113e+01|  4.1113e+01|   -8.998125|  2.2736e-05|    0.034805|
|        3990|  4.1113e+01|  4.1113e+01|   -9.000019|  2.2626e-05|    0.034784|
|        4000|  4.1113e+01|  4.1113e+01|   -9.001897|  2.2516e-05|    0.034763|
+-----------------------------------------------------------------------+
|        File Writing Summary       |              Filename             |
+-----------------------------------------------------------------------+
|SU2 binary restart                 |restart_flow_aoa14.dat             |
|Paraview                           |flow_aoa14.vtu                     |
|Paraview surface                   |surface_flow_aoa14.vtu             |
+-----------------------------------------------------------------------+
+-----------------------------------------------------------------------------+
|  Inner_Iter|     Min CFL|     Max CFL|      rms[P]|  Cauchy[CD]|          CD|
+-----------------------------------------------------------------------------+
|        4010|  4.1113e+01|  4.1113e+01|   -9.003762|  2.2405e-05|    0.034741|
|        4020|  4.1113e+01|  4.1113e+01|   -9.005604|  2.2294e-05|    0.034721|
|        4030|  4.1113e+01|  4.1113e+01|   -9.007454|  2.2184e-05|    0.034700|
|        4040|  4.1113e+01|  4.1113e+01|   -9.009297|  2.2074e-05|    0.034679|
|        4050|  4.1113e+01|  4.1113e+01|   -9.011147|  2.1965e-05|    0.034658|
|        4060|  4.1113e+01|  4.1113e+01|   -9.013027|  2.1857e-05|    0.034638|
|        4070|  4.1113e+01|  4.1113e+01|   -9.014908|  2.1749e-05|    0.034617|
|        4080|  4.1113e+01|  4.1113e+01|   -9.016805|  2.1643e-05|    0.034597|
|        4090|  4.1113e+01|  4.1113e+01|   -9.018706|  2.1536e-05|    0.034576|
|        4100|  4.1113e+01|  4.1113e+01|   -9.020581|  2.1430e-05|    0.034556|
|        4110|  4.1113e+01|  4.1113e+01|   -9.022459|  2.1324e-05|    0.034536|
|        4120|  4.1113e+01|  4.1113e+01|   -9.024333|  2.1219e-05|    0.034516|
|        4130|  4.1113e+01|  4.1113e+01|   -9.026190|  2.1113e-05|    0.034496|
|        4140|  4.1113e+01|  4.1113e+01|   -9.028062|  2.1008e-05|    0.034477|
|        4150|  4.1113e+01|  4.1113e+01|   -9.029949|  2.0903e-05|    0.034457|
|        4160|  4.1113e+01|  4.1113e+01|   -9.031840|  2.0799e-05|    0.034437|
|        4170|  4.1113e+01|  4.1113e+01|   -9.033729|  2.0696e-05|    0.034418|
|        4180|  4.1113e+01|  4.1113e+01|   -9.035603|  2.0593e-05|    0.034398|
|        4190|  4.1113e+01|  4.1113e+01|   -9.037466|  2.0490e-05|    0.034379|
|        4200|  4.1113e+01|  4.1113e+01|   -9.039316|  2.0388e-05|    0.034360|
+-----------------------------------------------------------------------+
|        File Writing Summary       |              Filename             |
+-----------------------------------------------------------------------+
|SU2 binary restart                 |restart_flow_aoa14.dat             |
|Paraview                           |flow_aoa14.vtu                     |
|Paraview surface                   |surface_flow_aoa14.vtu             |
+-----------------------------------------------------------------------+
+-----------------------------------------------------------------------------+
|  Inner_Iter|     Min CFL|     Max CFL|      rms[P]|  Cauchy[CD]|          CD|
+-----------------------------------------------------------------------------+
|        4210|  4.1113e+01|  4.1113e+01|   -9.041175|  2.0286e-05|    0.034341|
|        4220|  4.1113e+01|  4.1113e+01|   -9.043023|  2.0185e-05|    0.034322|
|        4230|  4.1113e+01|  4.1113e+01|   -9.044859|  2.0083e-05|    0.034303|
|        4240|  4.1113e+01|  4.1113e+01|   -9.046692|  1.9982e-05|    0.034284|
|        4250|  4.1113e+01|  4.1113e+01|   -9.048517|  1.9882e-05|    0.034266|
|        4260|  4.1113e+01|  4.1113e+01|   -9.050317|  1.9782e-05|    0.034247|
|        4270|  4.1113e+01|  4.1113e+01|   -9.052081|  1.9683e-05|    0.034228|
|        4280|  4.1113e+01|  4.1113e+01|   -9.053827|  1.9584e-05|    0.034210|
|        4290|  4.1113e+01|  4.1113e+01|   -9.055559|  1.9485e-05|    0.034192|
|        4300|  4.1113e+01|  4.1113e+01|   -9.057291|  1.9387e-05|    0.034173|
|        4310|  4.1113e+01|  4.1113e+01|   -9.059028|  1.9289e-05|    0.034155|
|        4320|  4.1113e+01|  4.1113e+01|   -9.060752|  1.9191e-05|    0.034137|
|        4330|  4.1113e+01|  4.1113e+01|   -9.062487|  1.9094e-05|    0.034119|
|        4340|  4.1113e+01|  4.1113e+01|   -9.064242|  1.8997e-05|    0.034102|
|        4350|  4.1113e+01|  4.1113e+01|   -9.065193|  1.8900e-05|    0.034084|
|        4360|  4.1113e+01|  4.1113e+01|   -9.066676|  1.8804e-05|    0.034066|
|        4370|  4.1113e+01|  4.1113e+01|   -9.068243|  1.8708e-05|    0.034048|
|        4380|  4.1113e+01|  4.1113e+01|   -9.070036|  1.8613e-05|    0.034031|
|        4390|  4.1113e+01|  4.1113e+01|   -9.072033|  1.8519e-05|    0.034014|
|        4400|  4.1113e+01|  4.1113e+01|   -9.074118|  1.8425e-05|    0.033996|
+-----------------------------------------------------------------------+
|        File Writing Summary       |              Filename             |
+-----------------------------------------------------------------------+
|SU2 binary restart                 |restart_flow_aoa14.dat             |
|Paraview                           |flow_aoa14.vtu                     |
|Paraview surface                   |surface_flow_aoa14.vtu             |
+-----------------------------------------------------------------------+
+-----------------------------------------------------------------------------+
|  Inner_Iter|     Min CFL|     Max CFL|      rms[P]|  Cauchy[CD]|          CD|
+-----------------------------------------------------------------------------+
|        4410|  4.1113e+01|  4.1113e+01|   -9.076163|  1.8332e-05|    0.033979|
|        4420|  4.1113e+01|  4.1113e+01|   -9.078072|  1.8239e-05|    0.033962|
|        4430|  4.1113e+01|  4.1113e+01|   -9.079843|  1.8147e-05|    0.033945|
|        4440|  4.1113e+01|  4.1113e+01|   -9.081555|  1.8055e-05|    0.033928|
|        4450|  4.1113e+01|  4.1113e+01|   -9.083298|  1.7964e-05|    0.033911|
|        4460|  4.1113e+01|  4.1113e+01|   -9.085120|  1.7872e-05|    0.033894|
|        4470|  4.1113e+01|  4.1113e+01|   -9.087061|  1.7781e-05|    0.033877|
|        4480|  4.1113e+01|  4.1113e+01|   -9.089078|  1.7691e-05|    0.033861|
|        4490|  4.1113e+01|  4.1113e+01|   -9.091109|  1.7601e-05|    0.033844|
|        4500|  4.1113e+01|  4.1113e+01|   -9.093122|  1.7511e-05|    0.033828|
|        4510|  4.1113e+01|  4.1113e+01|   -9.095070|  1.7423e-05|    0.033811|
|        4520|  4.1113e+01|  4.1113e+01|   -9.096982|  1.7334e-05|    0.033795|
|        4530|  4.1113e+01|  4.1113e+01|   -9.098894|  1.7246e-05|    0.033779|
|        4540|  4.1113e+01|  4.1113e+01|   -9.100827|  1.7159e-05|    0.033763|
|        4550|  4.1113e+01|  4.1113e+01|   -9.102795|  1.7072e-05|    0.033747|
|        4560|  4.1113e+01|  4.1113e+01|   -9.104796|  1.6986e-05|    0.033731|
|        4570|  4.1113e+01|  4.1113e+01|   -9.106805|  1.6899e-05|    0.033715|
|        4580|  4.1113e+01|  4.1113e+01|   -9.108808|  1.6813e-05|    0.033699|
|        4590|  4.1113e+01|  4.1113e+01|   -9.110785|  1.6728e-05|    0.033683|
|        4600|  4.1113e+01|  4.1113e+01|   -9.112731|  1.6643e-05|    0.033668|
+-----------------------------------------------------------------------+
|        File Writing Summary       |              Filename             |
+-----------------------------------------------------------------------+
|SU2 binary restart                 |restart_flow_aoa14.dat             |
|Paraview                           |flow_aoa14.vtu                     |
|Paraview surface                   |surface_flow_aoa14.vtu             |
+-----------------------------------------------------------------------+
+-----------------------------------------------------------------------------+
|  Inner_Iter|     Min CFL|     Max CFL|      rms[P]|  Cauchy[CD]|          CD|
+-----------------------------------------------------------------------------+
|        4610|  4.1113e+01|  4.1113e+01|   -9.114646|  1.6559e-05|    0.033652|
|        4620|  4.1113e+01|  4.1113e+01|   -9.116542|  1.6474e-05|    0.033637|
|        4630|  4.1113e+01|  4.1113e+01|   -9.118422|  1.6390e-05|    0.033621|
|        4640|  4.1113e+01|  4.1113e+01|   -9.120303|  1.6307e-05|    0.033606|
|        4650|  4.1113e+01|  4.1113e+01|   -9.122194|  1.6224e-05|    0.033591|
|        4660|  4.1113e+01|  4.1113e+01|   -9.124093|  1.6141e-05|    0.033575|
|        4670|  4.1113e+01|  4.1113e+01|   -9.126001|  1.6059e-05|    0.033560|
|        4680|  4.1113e+01|  4.1113e+01|   -9.127913|  1.5977e-05|    0.033545|
|        4690|  4.1113e+01|  4.1113e+01|   -9.129816|  1.5896e-05|    0.033530|
|        4700|  4.1113e+01|  4.1113e+01|   -9.131708|  1.5815e-05|    0.033516|
|        4710|  4.1113e+01|  4.1113e+01|   -9.133604|  1.5735e-05|    0.033501|
|        4720|  4.1113e+01|  4.1113e+01|   -9.135516|  1.5655e-05|    0.033486|
|        4730|  4.1113e+01|  4.1113e+01|   -9.137444|  1.5576e-05|    0.033471|
|        4740|  4.1113e+01|  4.1113e+01|   -9.139381|  1.5497e-05|    0.033457|
|        4750|  4.1113e+01|  4.1113e+01|   -9.141318|  1.5418e-05|    0.033442|
|        4760|  4.1113e+01|  4.1113e+01|   -9.143253|  1.5340e-05|    0.033428|
|        4770|  4.1113e+01|  4.1113e+01|   -9.145172|  1.5262e-05|    0.033414|
|        4780|  4.1113e+01|  4.1113e+01|   -9.147099|  1.5184e-05|    0.033399|
|        4790|  4.1113e+01|  4.1113e+01|   -9.149028|  1.5107e-05|    0.033385|
|        4800|  4.1113e+01|  4.1113e+01|   -9.150964|  1.5030e-05|    0.033371|
+-----------------------------------------------------------------------+
|        File Writing Summary       |              Filename             |
+-----------------------------------------------------------------------+
|SU2 binary restart                 |restart_flow_aoa14.dat             |
|Paraview                           |flow_aoa14.vtu                     |
|Paraview surface                   |surface_flow_aoa14.vtu             |
+-----------------------------------------------------------------------+
+-----------------------------------------------------------------------------+
|  Inner_Iter|     Min CFL|     Max CFL|      rms[P]|  Cauchy[CD]|          CD|
+-----------------------------------------------------------------------------+
|        4810|  4.1113e+01|  4.1113e+01|   -9.152921|  1.4952e-05|    0.033357|
|        4820|  4.1113e+01|  4.1113e+01|   -9.154882|  1.4876e-05|    0.033343|
|        4830|  4.1113e+01|  4.1113e+01|   -9.156846|  1.4799e-05|    0.033329|
|        4840|  4.1113e+01|  4.1113e+01|   -9.158818|  1.4723e-05|    0.033315|
|        4850|  4.1113e+01|  4.1113e+01|   -9.160798|  1.4648e-05|    0.033301|
|        4860|  4.1113e+01|  4.1113e+01|   -9.162785|  1.4573e-05|    0.033288|
|        4870|  4.1113e+01|  4.1113e+01|   -9.164768|  1.4498e-05|    0.033274|
|        4880|  4.1113e+01|  4.1113e+01|   -9.166741|  1.4424e-05|    0.033261|
|        4890|  4.1113e+01|  4.1113e+01|   -9.168699|  1.4350e-05|    0.033247|
|        4900|  4.1113e+01|  4.1113e+01|   -9.170642|  1.4276e-05|    0.033234|
|        4910|  4.1113e+01|  4.1113e+01|   -9.172574|  1.4202e-05|    0.033220|
|        4920|  4.1113e+01|  4.1113e+01|   -9.174507|  1.4128e-05|    0.033207|
|        4930|  4.1113e+01|  4.1113e+01|   -9.176442|  1.4055e-05|    0.033194|
|        4940|  4.1113e+01|  4.1113e+01|   -9.178378|  1.3982e-05|    0.033181|
|        4950|  4.1113e+01|  4.1113e+01|   -9.180320|  1.3909e-05|    0.033168|
|        4960|  4.1113e+01|  4.1113e+01|   -9.182273|  1.3837e-05|    0.033155|
|        4970|  4.1113e+01|  4.1113e+01|   -9.184232|  1.3765e-05|    0.033142|
|        4980|  4.1113e+01|  4.1113e+01|   -9.186192|  1.3694e-05|    0.033129|
|        4990|  4.1113e+01|  4.1113e+01|   -9.188163|  1.3623e-05|    0.033116|
|        5000|  4.1113e+01|  4.1113e+01|   -9.190143|  1.3552e-05|    0.033103|
+-----------------------------------------------------------------------+
|        File Writing Summary       |              Filename             |
+-----------------------------------------------------------------------+
|SU2 binary restart                 |restart_flow_aoa14.dat             |
|Paraview                           |flow_aoa14.vtu                     |
|Paraview surface                   |surface_flow_aoa14.vtu             |
+-----------------------------------------------------------------------+
+-----------------------------------------------------------------------------+
|  Inner_Iter|     Min CFL|     Max CFL|      rms[P]|  Cauchy[CD]|          CD|
+-----------------------------------------------------------------------------+
|        5010|  4.1113e+01|  4.1113e+01|   -9.192130|  1.3482e-05|    0.033091|
|        5020|  4.1113e+01|  4.1113e+01|   -9.194117|  1.3412e-05|    0.033078|
|        5030|  4.1113e+01|  4.1113e+01|   -9.196105|  1.3343e-05|    0.033066|
|        5040|  4.1113e+01|  4.1113e+01|   -9.198096|  1.3274e-05|    0.033053|
|        5050|  4.1113e+01|  4.1113e+01|   -9.200085|  1.3206e-05|    0.033041|
|        5060|  4.1113e+01|  4.1113e+01|   -9.202077|  1.3138e-05|    0.033028|
|        5070|  4.1113e+01|  4.1113e+01|   -9.204073|  1.3070e-05|    0.033016|
|        5080|  4.1113e+01|  4.1113e+01|   -9.206071|  1.3002e-05|    0.033004|
|        5090|  4.1113e+01|  4.1113e+01|   -9.208083|  1.2935e-05|    0.032992|
|        5100|  4.1113e+01|  4.1113e+01|   -9.210105|  1.2868e-05|    0.032980|
|        5110|  4.1113e+01|  4.1113e+01|   -9.212148|  1.2802e-05|    0.032968|
|        5120|  4.1113e+01|  4.1113e+01|   -9.214207|  1.2735e-05|    0.032956|
|        5130|  4.1113e+01|  4.1113e+01|   -9.216269|  1.2669e-05|    0.032944|
|        5140|  4.1113e+01|  4.1113e+01|   -9.218326|  1.2604e-05|    0.032932|
|        5150|  4.1113e+01|  4.1113e+01|   -9.220374|  1.2538e-05|    0.032920|
|        5160|  4.1113e+01|  4.1113e+01|   -9.222419|  1.2473e-05|    0.032909|
|        5170|  4.1113e+01|  4.1113e+01|   -9.224459|  1.2408e-05|    0.032897|
|        5180|  4.1113e+01|  4.1113e+01|   -9.226505|  1.2344e-05|    0.032885|
|        5190|  4.1113e+01|  4.1113e+01|   -9.228543|  1.2280e-05|    0.032874|
|        5200|  4.1113e+01|  4.1113e+01|   -9.230574|  1.2216e-05|    0.032862|
+-----------------------------------------------------------------------+
|        File Writing Summary       |              Filename             |
+-----------------------------------------------------------------------+
|SU2 binary restart                 |restart_flow_aoa14.dat             |
|Paraview                           |flow_aoa14.vtu                     |
|Paraview surface                   |surface_flow_aoa14.vtu             |
+-----------------------------------------------------------------------+
+-----------------------------------------------------------------------------+
|  Inner_Iter|     Min CFL|     Max CFL|      rms[P]|  Cauchy[CD]|          CD|
+-----------------------------------------------------------------------------+
|        5210|  4.1113e+01|  4.1113e+01|   -9.232599|  1.2152e-05|    0.032851|
|        5220|  4.1113e+01|  4.1113e+01|   -9.234619|  1.2089e-05|    0.032840|
|        5230|  4.1113e+01|  4.1113e+01|   -9.236637|  1.2025e-05|    0.032828|
|        5240|  4.1113e+01|  4.1113e+01|   -9.238654|  1.1963e-05|    0.032817|
|        5250|  4.1113e+01|  4.1113e+01|   -9.240674|  1.1900e-05|    0.032806|
|        5260|  4.1113e+01|  4.1113e+01|   -9.242693|  1.1838e-05|    0.032795|
|        5270|  4.1113e+01|  4.1113e+01|   -9.244711|  1.1776e-05|    0.032784|
|        5280|  4.1113e+01|  4.1113e+01|   -9.246737|  1.1715e-05|    0.032773|
|        5290|  4.1113e+01|  4.1113e+01|   -9.248768|  1.1654e-05|    0.032762|
|        5300|  4.1113e+01|  4.1113e+01|   -9.250802|  1.1593e-05|    0.032751|
|        5310|  4.1113e+01|  4.1113e+01|   -9.252836|  1.1533e-05|    0.032740|
|        5320|  4.1113e+01|  4.1113e+01|   -9.254857|  1.1473e-05|    0.032729|
|        5330|  4.1113e+01|  4.1113e+01|   -9.256880|  1.1414e-05|    0.032719|
|        5340|  4.1113e+01|  4.1113e+01|   -9.258898|  1.1354e-05|    0.032708|
|        5350|  4.1113e+01|  4.1113e+01|   -9.260916|  1.1296e-05|    0.032697|
|        5360|  4.1113e+01|  4.1113e+01|   -9.262938|  1.1237e-05|    0.032687|
|        5370|  4.1113e+01|  4.1113e+01|   -9.264968|  1.1179e-05|    0.032676|
|        5380|  4.1113e+01|  4.1113e+01|   -9.267017|  1.1122e-05|    0.032666|
|        5390|  4.1113e+01|  4.1113e+01|   -9.269063|  1.1064e-05|    0.032655|
|        5400|  4.1113e+01|  4.1113e+01|   -9.271124|  1.1007e-05|    0.032645|
+-----------------------------------------------------------------------+
|        File Writing Summary       |              Filename             |
+-----------------------------------------------------------------------+
|SU2 binary restart                 |restart_flow_aoa14.dat             |
|Paraview                           |flow_aoa14.vtu                     |
|Paraview surface                   |surface_flow_aoa14.vtu             |
+-----------------------------------------------------------------------+
+-----------------------------------------------------------------------------+
|  Inner_Iter|     Min CFL|     Max CFL|      rms[P]|  Cauchy[CD]|          CD|
+-----------------------------------------------------------------------------+
|        5410|  4.1113e+01|  4.1113e+01|   -9.273188|  1.0950e-05|    0.032635|
|        5420|  4.1113e+01|  4.1113e+01|   -9.275257|  1.0894e-05|    0.032625|
|        5430|  4.1113e+01|  4.1113e+01|   -9.277325|  1.0838e-05|    0.032614|
|        5440|  4.1113e+01|  4.1113e+01|   -9.279395|  1.0782e-05|    0.032604|
|        5450|  4.1113e+01|  4.1113e+01|   -9.281466|  1.0726e-05|    0.032594|
|        5460|  4.1113e+01|  4.1113e+01|   -9.283542|  1.0670e-05|    0.032584|
|        5470|  4.1113e+01|  4.1113e+01|   -9.285621|  1.0614e-05|    0.032574|
|        5480|  4.1113e+01|  4.1113e+01|   -9.287715|  1.0559e-05|    0.032564|
|        5490|  4.1113e+01|  4.1113e+01|   -9.289811|  1.0503e-05|    0.032555|
|        5500|  4.1113e+01|  4.1113e+01|   -9.291916|  1.0448e-05|    0.032545|
|        5510|  4.1113e+01|  4.1113e+01|   -9.294024|  1.0393e-05|    0.032535|
|        5520|  4.1113e+01|  4.1113e+01|   -9.296124|  1.0338e-05|    0.032525|
|        5530|  4.1113e+01|  4.1113e+01|   -9.298221|  1.0284e-05|    0.032516|
|        5540|  4.1113e+01|  4.1113e+01|   -9.300307|  1.0229e-05|    0.032506|
|        5550|  4.1113e+01|  4.1113e+01|   -9.302388|  1.0175e-05|    0.032497|
|        5560|  4.1113e+01|  4.1113e+01|   -9.304471|  1.0121e-05|    0.032487|
|        5570|  4.1113e+01|  4.1113e+01|   -9.306558|  1.0067e-05|    0.032478|
|        5580|  4.1113e+01|  4.1113e+01|   -9.308658|  1.0014e-05|    0.032468|
|        5590|  4.1113e+01|  4.1113e+01|   -9.310755|  9.9606e-06|    0.032459|
|        5600|  4.1113e+01|  4.1113e+01|   -9.312864|  9.9077e-06|    0.032450|
+-----------------------------------------------------------------------+
|        File Writing Summary       |              Filename             |
+-----------------------------------------------------------------------+
|SU2 binary restart                 |restart_flow_aoa14.dat             |
|Paraview                           |flow_aoa14.vtu                     |
|Paraview surface                   |surface_flow_aoa14.vtu             |
+-----------------------------------------------------------------------+
+-----------------------------------------------------------------------------+
|  Inner_Iter|     Min CFL|     Max CFL|      rms[P]|  Cauchy[CD]|          CD|
+-----------------------------------------------------------------------------+
|        5610|  4.1113e+01|  4.1113e+01|   -9.314974|  9.8550e-06|    0.032440|
|        5620|  4.1113e+01|  4.1113e+01|   -9.317092|  9.8026e-06|    0.032431|
|        5630|  4.1113e+01|  4.1113e+01|   -9.319199|  9.7505e-06|    0.032422|
|        5640|  4.1113e+01|  4.1113e+01|   -9.321300|  9.6986e-06|    0.032413|
|        5650|  4.1113e+01|  4.1113e+01|   -9.323395|  9.6470e-06|    0.032404|
|        5660|  4.1113e+01|  4.1113e+01|   -9.325496|  9.5957e-06|    0.032395|
|        5670|  4.1113e+01|  4.1113e+01|   -9.327598|  9.5447e-06|    0.032386|
|        5680|  4.1113e+01|  4.1113e+01|   -9.329716|  9.4941e-06|    0.032377|
|        5690|  4.1113e+01|  4.1113e+01|   -9.331849|  9.4440e-06|    0.032368|
|        5700|  4.1113e+01|  4.1113e+01|   -9.334001|  9.3943e-06|    0.032359|
|        5710|  4.1113e+01|  4.1113e+01|   -9.336147|  9.3450e-06|    0.032351|
|        5720|  4.1113e+01|  4.1113e+01|   -9.338279|  9.2962e-06|    0.032342|
|        5730|  4.1113e+01|  4.1113e+01|   -9.340400|  9.2476e-06|    0.032333|
[...]
|  Inner_Iter|     Min CFL|     Max CFL|      rms[P]|  Cauchy[CD]|          CD|
+-----------------------------------------------------------------------------+
|        8210|  4.3988e+00|  4.3988e+00|   -9.913924|  2.3357e-06|    0.031151|
|        8220|  2.7236e+01|  2.7236e+01|   -9.921693|  2.2580e-06|    0.031151|
|        8230|  1.4053e+01|  1.4053e+01|   -9.922110|  2.1971e-06|    0.031150|
|        8240|  4.1963e+01|  4.1963e+01|   -9.914008|  2.1614e-06|    0.031148|
|        8250|  4.1963e+01|  4.1963e+01|   -9.915561|  2.1503e-06|    0.031146|
|        8260|  4.1963e+01|  4.1963e+01|   -9.917992|  2.1392e-06|    0.031144|
|        8270|  4.1963e+01|  4.1963e+01|   -9.920077|  2.1284e-06|    0.031141|
|        8280|  4.1963e+01|  4.1963e+01|   -9.922400|  2.1187e-06|    0.031139|
|        8290|  4.1963e+01|  4.1963e+01|   -9.924863|  2.1096e-06|    0.031137|
|        8300|  4.1963e+01|  4.1963e+01|   -9.927019|  2.0999e-06|    0.031135|
|        8310|  4.1963e+01|  4.1963e+01|   -9.929144|  2.0893e-06|    0.031133|
|        8320|  4.1963e+01|  4.1963e+01|   -9.931477|  2.0786e-06|    0.031130|
|        8330|  4.1963e+01|  4.1963e+01|   -9.933896|  2.0681e-06|    0.031128|
|        8340|  4.1963e+01|  4.1963e+01|   -9.936342|  2.0580e-06|    0.031126|
|        8350|  4.1963e+01|  4.1963e+01|   -9.938840|  2.0482e-06|    0.031124|
|        8360|  4.1963e+01|  4.1963e+01|   -9.941373|  2.0386e-06|    0.031122|
|        8370|  4.1963e+01|  4.1963e+01|   -9.943905|  2.0291e-06|    0.031120|
|        8380|  4.1963e+01|  4.1963e+01|   -9.946308|  2.0196e-06|    0.031118|
|        8390|  4.1963e+01|  4.1963e+01|   -9.948542|  2.0099e-06|    0.031116|
|        8400|  4.1963e+01|  4.1963e+01|   -9.950816|  2.0000e-06|    0.031114|
+-----------------------------------------------------------------------+
|        File Writing Summary       |              Filename             |
+-----------------------------------------------------------------------+
|SU2 binary restart                 |restart_flow_aoa14.dat             |
|Paraview                           |flow_aoa14.vtu                     |
|Paraview surface                   |surface_flow_aoa14.vtu             |
+-----------------------------------------------------------------------+
+-----------------------------------------------------------------------------+
|  Inner_Iter|     Min CFL|     Max CFL|      rms[P]|  Cauchy[CD]|          CD|
+-----------------------------------------------------------------------------+
|        8410|  4.1963e+01|  4.1963e+01|   -9.953286|  1.9903e-06|    0.031112|
|        8420|  4.1963e+01|  4.1963e+01|   -9.955890|  1.9809e-06|    0.031109|
|        8430|  4.1963e+01|  4.1963e+01|   -9.958495|  1.9717e-06|    0.031107|
|        8440|  4.1963e+01|  4.1963e+01|   -9.961001|  1.9625e-06|    0.031105|
|        8450|  4.1963e+01|  4.1963e+01|   -9.963362|  1.9742e-06|    0.031103|
|        8460|  4.1963e+01|  4.1963e+01|   -9.965585|  2.0049e-06|    0.031101|
|        8470|  4.1963e+01|  4.1963e+01|   -9.967784|  2.0594e-06|    0.031099|
|        8480|  4.1963e+01|  4.1963e+01|   -9.970123|  2.0973e-06|    0.031097|
|        8490|  4.1963e+01|  4.1963e+01|   -9.972678|  2.1103e-06|    0.031095|
|        8500|  4.1963e+01|  4.1963e+01|   -9.975363|  2.0989e-06|    0.031093|
|        8510|  4.1963e+01|  4.1963e+01|   -9.978007|  2.0875e-06|    0.031092|
|        8520|  4.1963e+01|  4.1963e+01|   -9.980471|  2.0760e-06|    0.031090|
|        8530|  4.1963e+01|  4.1963e+01|   -9.982735|  2.0634e-06|    0.031088|
|        8540|  4.1963e+01|  4.1963e+01|   -9.984913|  2.0503e-06|    0.031086|
|        8550|  4.1963e+01|  4.1963e+01|   -9.987179|  2.0381e-06|    0.031084|
|        8560|  4.1963e+01|  4.1963e+01|   -9.989647|  2.0269e-06|    0.031082|
|        8570|  4.1963e+01|  4.1963e+01|   -9.992284|  2.0161e-06|    0.031080|
|        8580|  4.1963e+01|  4.1963e+01|   -9.994941|  2.0052e-06|    0.031078|
|        8590|  4.1963e+01|  4.1963e+01|   -9.997476|  1.9940e-06|    0.031076|
|        8600|  4.1963e+01|  4.1963e+01|   -9.999837|  1.9826e-06|    0.031074|
+-----------------------------------------------------------------------+
|        File Writing Summary       |              Filename             |
+-----------------------------------------------------------------------+
|SU2 binary restart                 |restart_flow_aoa14.dat             |
|Paraview                           |flow_aoa14.vtu                     |
|Paraview surface                   |surface_flow_aoa14.vtu             |
+-----------------------------------------------------------------------+
+-----------------------------------------------------------------------------+
|  Inner_Iter|     Min CFL|     Max CFL|      rms[P]|  Cauchy[CD]|          CD|
+-----------------------------------------------------------------------------+
|        8610|  4.1963e+01|  4.1963e+01|  -10.002085|  1.9711e-06|    0.031073|
|        8620|  4.1963e+01|  4.1963e+01|  -10.004358|  1.9596e-06|    0.031071|
|        8630|  4.1963e+01|  4.1963e+01|  -10.006767|  1.9484e-06|    0.031069|
|        8640|  4.1963e+01|  4.1963e+01|  -10.009327|  1.9375e-06|    0.031067|
|        8650|  4.1963e+01|  4.1963e+01|  -10.011951|  1.9268e-06|    0.031065|
|        8660|  4.1963e+01|  4.1963e+01|  -10.014518|  1.9162e-06|    0.031064|
|        8670|  4.1963e+01|  4.1963e+01|  -10.016966|  1.9052e-06|    0.031062|
|        8680|  4.1963e+01|  4.1963e+01|  -10.019319|  1.8943e-06|    0.031060|
|        8690|  4.1963e+01|  4.1963e+01|  -10.021660|  1.8835e-06|    0.031058|
|        8700|  4.1963e+01|  4.1963e+01|  -10.024074|  1.8730e-06|    0.031057|
|        8710|  4.1963e+01|  4.1963e+01|  -10.026588|  1.8626e-06|    0.031055|
|        8720|  4.1963e+01|  4.1963e+01|  -10.029162|  1.8521e-06|    0.031053|
|        8730|  4.1963e+01|  4.1963e+01|  -10.031724|  1.8417e-06|    0.031051|
|        8740|  4.1963e+01|  4.1963e+01|  -10.034220|  1.8313e-06|    0.031050|
|        8750|  4.1963e+01|  4.1963e+01|  -10.036652|  1.8209e-06|    0.031048|
|        8760|  4.1963e+01|  4.1963e+01|  -10.039065|  1.8105e-06|    0.031046|
|        8770|  4.1963e+01|  4.1963e+01|  -10.041514|  1.8004e-06|    0.031045|
|        8780|  4.1963e+01|  4.1963e+01|  -10.044019|  1.7904e-06|    0.031043|
|        8790|  4.1963e+01|  4.1963e+01|  -10.046565|  1.7804e-06|    0.031041|
|        8800|  4.1963e+01|  4.1963e+01|  -10.049114|  1.7704e-06|    0.031040|
+-----------------------------------------------------------------------+
|        File Writing Summary       |              Filename             |
+-----------------------------------------------------------------------+
|SU2 binary restart                 |restart_flow_aoa14.dat             |
|Paraview                           |flow_aoa14.vtu                     |
|Paraview surface                   |surface_flow_aoa14.vtu             |
+-----------------------------------------------------------------------+
+-----------------------------------------------------------------------------+
|  Inner_Iter|     Min CFL|     Max CFL|      rms[P]|  Cauchy[CD]|          CD|
+-----------------------------------------------------------------------------+
|        8810|  4.1963e+01|  4.1963e+01|  -10.051633|  1.7604e-06|    0.031038|
|        8820|  4.1963e+01|  4.1963e+01|  -10.054117|  1.7504e-06|    0.031036|
|        8830|  4.1963e+01|  4.1963e+01|  -10.056583|  1.7405e-06|    0.031035|
|        8840|  4.1963e+01|  4.1963e+01|  -10.059059|  1.7306e-06|    0.031033|
|        8850|  4.1963e+01|  4.1963e+01|  -10.061558|  1.7208e-06|    0.031031|
|        8860|  4.1963e+01|  4.1963e+01|  -10.064080|  1.7111e-06|    0.031030|
|        8870|  4.1963e+01|  4.1963e+01|  -10.066612|  1.7014e-06|    0.031028|
|        8880|  4.1963e+01|  4.1963e+01|  -10.069144|  1.6918e-06|    0.031027|
|        8890|  4.1963e+01|  4.1963e+01|  -10.071666|  1.6822e-06|    0.031025|
|        8900|  4.1963e+01|  4.1963e+01|  -10.074183|  1.6726e-06|    0.031024|
|        8910|  4.1963e+01|  4.1963e+01|  -10.076698|  1.6631e-06|    0.031022|
|        8920|  4.1963e+01|  4.1963e+01|  -10.079213|  1.6537e-06|    0.031020|
|        8930|  4.1963e+01|  4.1963e+01|  -10.081730|  1.6443e-06|    0.031019|
|        8940|  4.1963e+01|  4.1963e+01|  -10.084250|  1.6350e-06|    0.031017|
|        8950|  4.1963e+01|  4.1963e+01|  -10.086768|  1.6257e-06|    0.031016|
|        8960|  4.1963e+01|  4.1963e+01|  -10.089289|  1.6164e-06|    0.031014|
|        8970|  4.1963e+01|  4.1963e+01|  -10.091814|  1.6072e-06|    0.031013|
|        8980|  4.1963e+01|  4.1963e+01|  -10.094342|  1.5981e-06|    0.031011|
|        8990|  4.1963e+01|  4.1963e+01|  -10.096872|  1.5890e-06|    0.031010|
|        9000|  4.1963e+01|  4.1963e+01|  -10.099398|  1.5800e-06|    0.031008|
+-----------------------------------------------------------------------+
|        File Writing Summary       |              Filename             |
+-----------------------------------------------------------------------+
|SU2 binary restart                 |restart_flow_aoa14.dat             |
|Paraview                           |flow_aoa14.vtu                     |
|Paraview surface                   |surface_flow_aoa14.vtu             |
+-----------------------------------------------------------------------+
+-----------------------------------------------------------------------------+
|  Inner_Iter|     Min CFL|     Max CFL|      rms[P]|  Cauchy[CD]|          CD|
+-----------------------------------------------------------------------------+
|        9010|  4.1963e+01|  4.1963e+01|  -10.101916|  1.5710e-06|    0.031007|
|        9020|  4.1963e+01|  4.1963e+01|  -10.104429|  1.5620e-06|    0.031006|
|        9030|  4.1963e+01|  4.1963e+01|  -10.106937|  1.5531e-06|    0.031004|
|        9040|  4.1963e+01|  4.1963e+01|  -10.109448|  1.5443e-06|    0.031003|
|        9050|  4.1963e+01|  4.1963e+01|  -10.111967|  1.5355e-06|    0.031001|
|        9060|  4.1963e+01|  4.1963e+01|  -10.114494|  1.5267e-06|    0.031000|
|        9070|  4.1963e+01|  4.1963e+01|  -10.117023|  1.5181e-06|    0.030998|
|        9080|  4.1963e+01|  4.1963e+01|  -10.119548|  1.5095e-06|    0.030997|
|        9090|  4.1963e+01|  4.1963e+01|  -10.122064|  1.5009e-06|    0.030996|
|        9100|  4.1963e+01|  4.1963e+01|  -10.124573|  1.4923e-06|    0.030994|
|        9110|  4.1963e+01|  4.1963e+01|  -10.127077|  1.4839e-06|    0.030993|
|        9120|  4.1963e+01|  4.1963e+01|  -10.129584|  1.4754e-06|    0.030991|
|        9130|  4.1963e+01|  4.1963e+01|  -10.132093|  1.4670e-06|    0.030990|
|        9140|  4.1963e+01|  4.1963e+01|  -10.134604|  1.4587e-06|    0.030989|
|        9150|  4.1963e+01|  4.1963e+01|  -10.137116|  1.4504e-06|    0.030987|
|        9160|  4.1963e+01|  4.1963e+01|  -10.139627|  1.4421e-06|    0.030986|
|        9170|  4.1963e+01|  4.1963e+01|  -10.142137|  1.4339e-06|    0.030985|
|        9180|  4.1963e+01|  4.1963e+01|  -10.144644|  1.4258e-06|    0.030983|
|        9190|  4.1963e+01|  4.1963e+01|  -10.147150|  1.4176e-06|    0.030982|
|        9200|  4.1963e+01|  4.1963e+01|  -10.149655|  1.4096e-06|    0.030981|
+-----------------------------------------------------------------------+
|        File Writing Summary       |              Filename             |
+-----------------------------------------------------------------------+
|SU2 binary restart                 |restart_flow_aoa14.dat             |
|Paraview                           |flow_aoa14.vtu                     |
|Paraview surface                   |surface_flow_aoa14.vtu             |
+-----------------------------------------------------------------------+
+-----------------------------------------------------------------------------+
|  Inner_Iter|     Min CFL|     Max CFL|      rms[P]|  Cauchy[CD]|          CD|
+-----------------------------------------------------------------------------+
|        9210|  4.1963e+01|  4.1963e+01|  -10.152159|  1.4015e-06|    0.030979|
|        9220|  4.1963e+01|  4.1963e+01|  -10.154661|  1.3935e-06|    0.030978|
|        9230|  4.1963e+01|  4.1963e+01|  -10.157163|  1.3856e-06|    0.030977|
|        9240|  4.1963e+01|  4.1963e+01|  -10.159667|  1.3777e-06|    0.030975|
|        9250|  4.1963e+01|  4.1963e+01|  -10.162172|  1.3698e-06|    0.030974|
|        9260|  4.1963e+01|  4.1963e+01|  -10.164677|  1.3620e-06|    0.030973|
|        9270|  4.1963e+01|  4.1963e+01|  -10.167181|  1.3542e-06|    0.030972|
|        9280|  4.1963e+01|  4.1963e+01|  -10.169682|  1.3464e-06|    0.030970|
|        9290|  4.1963e+01|  4.1963e+01|  -10.172182|  1.3387e-06|    0.030969|
|        9300|  4.1963e+01|  4.1963e+01|  -10.174681|  1.3310e-06|    0.030968|
|        9310|  4.1963e+01|  4.1963e+01|  -10.177184|  1.3234e-06|    0.030967|
|        9320|  4.1963e+01|  4.1963e+01|  -10.179690|  1.3158e-06|    0.030965|
|        9330|  4.1963e+01|  4.1963e+01|  -10.182197|  1.3082e-06|    0.030964|
|        9340|  4.1963e+01|  4.1963e+01|  -10.184707|  1.3007e-06|    0.030963|
|        9350|  4.1963e+01|  4.1963e+01|  -10.187217|  1.2932e-06|    0.030962|
|        9360|  4.1963e+01|  4.1963e+01|  -10.189728|  1.2857e-06|    0.030961|
|        9370|  4.1963e+01|  4.1963e+01|  -10.192241|  1.2783e-06|    0.030959|
|        9380|  4.1963e+01|  4.1963e+01|  -10.194755|  1.2709e-06|    0.030958|
|        9390|  4.1963e+01|  4.1963e+01|  -10.197270|  1.2635e-06|    0.030957|
|        9400|  4.1963e+01|  4.1963e+01|  -10.199786|  1.2562e-06|    0.030956|
+-----------------------------------------------------------------------+
|        File Writing Summary       |              Filename             |
+-----------------------------------------------------------------------+
|SU2 binary restart                 |restart_flow_aoa14.dat             |
|Paraview                           |flow_aoa14.vtu                     |
|Paraview surface                   |surface_flow_aoa14.vtu             |
+-----------------------------------------------------------------------+
+-----------------------------------------------------------------------------+
|  Inner_Iter|     Min CFL|     Max CFL|      rms[P]|  Cauchy[CD]|          CD|
+-----------------------------------------------------------------------------+
|        9410|  4.1963e+01|  4.1963e+01|  -10.202302|  1.2489e-06|    0.030955|
|        9420|  4.1963e+01|  4.1963e+01|  -10.204818|  1.2417e-06|    0.030954|
|        9430|  4.1963e+01|  4.1963e+01|  -10.207336|  1.2345e-06|    0.030952|
|        9440|  4.1963e+01|  4.1963e+01|  -10.209855|  1.2274e-06|    0.030951|
|        9450|  4.1963e+01|  4.1963e+01|  -10.212377|  1.2202e-06|    0.030950|
|        9460|  4.1963e+01|  4.1963e+01|  -10.214901|  1.2132e-06|    0.030949|
|        9470|  4.1963e+01|  4.1963e+01|  -10.217423|  1.2061e-06|    0.030948|
|        9480|  4.1963e+01|  4.1963e+01|  -10.219945|  1.1991e-06|    0.030947|
|        9490|  4.1963e+01|  4.1963e+01|  -10.222467|  1.1922e-06|    0.030946|
|        9500|  4.1963e+01|  4.1963e+01|  -10.224990|  1.1852e-06|    0.030945|
|        9510|  4.1963e+01|  4.1963e+01|  -10.227516|  1.1784e-06|    0.030943|
|        9520|  4.1963e+01|  4.1963e+01|  -10.230044|  1.1715e-06|    0.030942|
|        9530|  4.1963e+01|  4.1963e+01|  -10.232573|  1.1648e-06|    0.030941|
|        9540|  4.1963e+01|  4.1963e+01|  -10.235104|  1.1580e-06|    0.030940|
|        9550|  4.1963e+01|  4.1963e+01|  -10.237636|  1.1513e-06|    0.030939|
|        9560|  4.1963e+01|  4.1963e+01|  -10.240168|  1.1447e-06|    0.030938|
|        9570|  4.1963e+01|  4.1963e+01|  -10.242699|  1.1381e-06|    0.030937|
|        9580|  4.1963e+01|  4.1963e+01|  -10.245229|  1.1315e-06|    0.030936|
|        9590|  4.1963e+01|  4.1963e+01|  -10.247758|  1.1250e-06|    0.030935|
|        9600|  4.1963e+01|  4.1963e+01|  -10.250286|  1.1185e-06|    0.030934|
+-----------------------------------------------------------------------+
|        File Writing Summary       |              Filename             |
+-----------------------------------------------------------------------+
|SU2 binary restart                 |restart_flow_aoa14.dat             |
|Paraview                           |flow_aoa14.vtu                     |
|Paraview surface                   |surface_flow_aoa14.vtu             |
+-----------------------------------------------------------------------+
+-----------------------------------------------------------------------------+
|  Inner_Iter|     Min CFL|     Max CFL|      rms[P]|  Cauchy[CD]|          CD|
+-----------------------------------------------------------------------------+
|        9610|  4.1963e+01|  4.1963e+01|  -10.252816|  1.1121e-06|    0.030933|
|        9620|  4.1963e+01|  4.1963e+01|  -10.255348|  1.1057e-06|    0.030932|
|        9630|  4.1963e+01|  4.1963e+01|  -10.257879|  1.0994e-06|    0.030931|
|        9640|  4.1963e+01|  4.1963e+01|  -10.260409|  1.0931e-06|    0.030930|
|        9650|  4.1963e+01|  4.1963e+01|  -10.262939|  1.0868e-06|    0.030929|
|        9660|  4.1963e+01|  4.1963e+01|  -10.265468|  1.0806e-06|    0.030928|
|        9670|  4.1963e+01|  4.1963e+01|  -10.267997|  1.0744e-06|    0.030927|
|        9680|  4.1963e+01|  4.1963e+01|  -10.270526|  1.0683e-06|    0.030926|
|        9690|  4.1963e+01|  4.1963e+01|  -10.273053|  1.0622e-06|    0.030925|
|        9700|  4.1963e+01|  4.1963e+01|  -10.275580|  1.0561e-06|    0.030924|
|        9710|  4.1963e+01|  4.1963e+01|  -10.278107|  1.0501e-06|    0.030923|
|        9720|  4.1963e+01|  4.1963e+01|  -10.280633|  1.0441e-06|    0.030922|
|        9730|  4.1963e+01|  4.1963e+01|  -10.283157|  1.0382e-06|    0.030921|
|        9740|  4.1963e+01|  4.1963e+01|  -10.285680|  1.0323e-06|    0.030920|
|        9750|  4.1963e+01|  4.1963e+01|  -10.288204|  1.0264e-06|    0.030919|
|        9760|  4.1963e+01|  4.1963e+01|  -10.290729|  1.0205e-06|    0.030918|
|        9770|  4.1963e+01|  4.1963e+01|  -10.293252|  1.0147e-06|    0.030917|
|        9780|  4.1963e+01|  4.1963e+01|  -10.295775|  1.0089e-06|    0.030916|
|        9790|  4.1963e+01|  4.1963e+01|  -10.298298|  1.0031e-06|    0.030915|
|        9796|  4.1963e+01|  4.1963e+01|  -10.299811|  9.9971e-07|    0.030915|

----------------------------- Solver Exit -------------------------------
All convergence criteria satisfied.
+-----------------------------------------------------------------------+
|      Convergence Field     |     Value    |   Criterion  |  Converged |
+-----------------------------------------------------------------------+
|                      rms[P]|      -10.2998|          < -9|         Yes|
|                  Cauchy[CD]|   9.99708e-07|       < 1e-06|         Yes|
+-----------------------------------------------------------------------+
-------------------------------------------------------------------------
+-----------------------------------------------------------------------+
|        File Writing Summary       |              Filename             |
+-----------------------------------------------------------------------+
|SU2 binary restart                 |restart_flow_aoa14.dat             |
|Paraview                           |flow_aoa14.vtu                     |
|Paraview surface                   |surface_flow_aoa14.vtu             |
+-----------------------------------------------------------------------+

------------------------- Solver Postprocessing -------------------------
Deleted CNumerics container.
Deleted CIntegration container.
Deleted CSolver container.
Deleted CIteration container.
Deleted CInterface container.
Deleted CGeometry container.
Deleted CFreeFormDefBox class.
Deleted CSurfaceMovement class.
Deleted CVolumetricMovement class.
Deleted CConfig container.
Deleted nInst container.
Deleted COutput class.
-------------------------------------------------------------------------

------------------------- Exit Success (SU2_CFD) ------------------------

