
-------------------------------------------------------------------------
|    ___ _   _ ___                                                      |
|   / __| | | |_  )   Release 7.4.0 "Blackbird"                         |
|   \__ \ |_| |/ /                                                      |
|   |___/\___//___|   Suite (Computational Fluid Dynamics Code)         |
|                                                                       |
-------------------------------------------------------------------------
| SU2 Project Website: https://su2code.github.io                        |
|                                                                       |
| The SU2 Project is maintained by the SU2 Foundation                   |
| (http://su2foundation.org)                                            |
-------------------------------------------------------------------------
| Copyright 2012-2022, SU2 Contributors                                 |
|                                                                       |
| SU2 is free software; you can redistribute it and/or                  |
| modify it under the terms of the GNU Lesser General Public            |
| License as published by the Free Software Foundation; either          |
| version 2.1 of the License, or (at your option) any later version.    |
|                                                                       |
| SU2 is distributed in the hope that it will be useful,                |
| but WITHOUT ANY WARRANTY; without even the implied warranty of        |
| MERCHANTABILITY or FITNESS FOR A PARTICULAR PURPOSE. See the GNU      |
| Lesser General Public License for more details.                       |
|                                                                       |
| You should have received a copy of the GNU Lesser General Public      |
| License along with SU2. If not, see <http://www.gnu.org/licenses/>.   |
-------------------------------------------------------------------------

Parsing config file for zone 0

----------------- Physical Case Definition ( Zone 0 ) -------------------
Incompressible RANS equations.
Turbulence model: Spalart-Allmaras-noft2
Hybrid RANS/LES: No Hybrid RANS/LES
Reading and writing binary SU2 native restart files.
Read flow solution from: ../../../O1/caseG1/cfdG1/restart_flow_G1.dat.
Non-Dimensional simulation using intialization values.
The reference area is 1 m^2.
The semi-span will be computed using the max y(3D) value.
The reference length is 1.00898 m.
Reference origin for moment evaluation is (-0.756, 0, 0).
Surface(s) where the force coefficients are evaluated: AIRFOIL.

Surface(s) plotted in the output file: AIRFOIL.
Input mesh file name: ../meshG1/meshG1.su2

--------------- Space Numerical Integration ( Zone 0 ) ------------------
Flux difference splitting (FDS) upwind scheme for the flow inviscid terms.
Second order integration in space, with slope limiter.
Venkatakrishnan slope-limiting method, with constant: 0.1455.
The reference element size is: 1. 
Average of gradients with correction (viscous flow terms).
Average of gradients with correction (viscous turbulence terms).
Gradient for upwind reconstruction: unweighted Least-Squares.
Gradient for viscous and source terms: Green-Gauss.

--------------- Time Numerical Integration  ( Zone 0 ) ------------------
Local time stepping (steady state simulation).
Euler implicit method for the flow equations.
FGMRES is used for solving the linear system.
Using a ILU(0) preconditioning.
Convergence criteria of the linear solver: 1e-06.
Max number of linear iterations: 10.
CFL adaptation. Factor down: 0.1, factor up: 1.2,
                lower limit: 1, upper limit: 1000,
                acceptable linear residual: 0.001.
Courant-Friedrichs-Lewy number:        2
Euler implicit time integration for the turbulence model.

------------------ Convergence Criteria  ( Zone 0 ) ---------------------
Maximum number of solver subiterations: 9999.
Begin convergence monitoring at iteration 10.
Residual minimum value: 1e-9.
Cauchy series min. value: 1e-06.
Number of Cauchy elements: 250.
Begin windowed time average at iteration 0.

-------------------- Output Information ( Zone 0 ) ----------------------
File writing frequency: 
+------------------------------------+
|                     File| Frequency|
+------------------------------------+
|                  RESTART|       200|
|                 PARAVIEW|       200|
|         SURFACE_PARAVIEW|       200|
+------------------------------------+
Writing the convergence history file every 1 inner iterations.
Writing the screen convergence history every 10 inner iterations.
The tabular file format is CSV (.csv).
Convergence history file name: history_G1.
Forces breakdown file name: forces_breakdown.dat.
Surface file name: surface_flow_G1.
Volume file name: flow_G1.
Restart file name: restart_flow_G1.dat.

------------- Config File Boundary Information ( Zone 0 ) ---------------
+-----------------------------------------------------------------------+
|                        Marker Type|                        Marker Name|
+-----------------------------------------------------------------------+
|                          Far-field|                           FARFIELD|
+-----------------------------------------------------------------------+
|                     Heat flux wall|                            AIRFOIL|
+-----------------------------------------------------------------------+

-------------------- Output Preprocessing ( Zone 0 ) --------------------

WARNING: SURFACE_PRESSURE_DROP can only be computed for at least 2 surfaces (outlet, inlet, ...)

Screen output fields: INNER_ITER, MIN_CFL, MAX_CFL, RMS_PRESSURE, CAUCHY_DRAG, DRAG
History output group(s): INNER_ITER, MIN_CFL, MAX_CFL, RMS_RES, LIFT, DRAG, MOMENT_Z, CAUCHY
Convergence field(s): RMS_PRESSURE, DRAG
Warning: No (valid) fields chosen for time convergence monitoring. Time convergence monitoring inactive.
Volume output fields: COORDINATES, SOLUTION, PRIMITIVE, RESIDUAL, MESH_QUALITY

------------------- Geometry Preprocessing ( Zone 0 ) -------------------
Two dimensional problem.
53747 grid points before partitioning.
53248 volume elements before partitioning.
2 surface markers.
278 boundary elements in index 0 (Marker = AIRFOIL).
720 boundary elements in index 1 (Marker = FARFIELD).
Executing the partitioning functions.
Building the graph adjacency structure.
Calling ParMETIS... graph partitioning complete (2392 edge cuts).
Distributing ParMETIS coloring.
Rebalancing vertices.
Rebalancing volume element connectivity.
Rebalancing markers and surface elements.
58589 vertices including ghost points. 
55645 interior elements including halo cells. 
55645 quadrilaterals.
Establishing MPI communication patterns.
Setting point connectivity.
Renumbering points (Reverse Cuthill McKee Ordering).
Recomputing point connectivity.
Setting element connectivity.
Checking the numerical grid orientation.
All volume elements are correctly orientend.
There has been a re-orientation of 508 LINE surface elements.
Identifying edges and vertices.
Setting the control volume structure.
Area of the computational grid: 103729.
Searching for the closest normal neighbors to the surfaces.
Storing a mapping from global to local point index.
Compute the surface curvature.
Max K: 4830.69. Mean K: 6.1332. Standard deviation K: 153.043.
Checking for periodicity.
Computing mesh quality statistics for the dual control volumes.
+--------------------------------------------------------------+
|           Mesh Quality Metric|        Minimum|        Maximum|
+--------------------------------------------------------------+
|    Orthogonality Angle (deg.)|        73.7788|             90|
|     CV Face Area Aspect Ratio|        1.00033|         754732|
|           CV Sub-Volume Ratio|              1|        3.92412|
+--------------------------------------------------------------+
Finding max control volume width.
Communicating number of neighbors.
Wetted area = 2.05946 m.
Area projection in the x-plane = 0.121081 m, y-plane = 1.00869 m.
Max. coordinate in the x-direction = 1.00898 m, y-direction = 0.0759843 m.
Min. coordinate in the x-direction = 6.75347e-07 m, y-direction = -0.0451295 m.
Computing wall distances.

-------------------- Solver Preprocessing ( Zone 0 ) --------------------
 Warning: There is no restart file (flow.meta).
 Computation will continue without updating metadata parameters.
Incompressible flow: rho_ref, vel_ref, and temp_ref
are based on the initial values, p_ref = rho_ref*vel_ref^2.
Force coefficients computed using initial values.
The reference area for force coeffs. is 1 m^2.
The reference length for force coeffs. is 1.00898 m.
The pressure is decomposed into thermodynamic and dynamic components.
The initial value of the dynamic pressure is 0.
Mach number: 0.0276747, computed using the Bulk modulus.
For external flows, the initial state is imposed at the far-field.
Angle of attack (deg): 14, computed using the initial velocity.
Side slip angle (deg): 0, computed using the initial velocity.
Reynolds number per meter: 594999, computed using initial values.
Reynolds number is a byproduct of inputs only (not used internally).
SI units only. The grid should be dimensional (meters).
No energy equation.

-- Models:
+------------------------------------------------------------------------------+
|          Viscosity Model|        Conductivity Model|              Fluid Model|
+------------------------------------------------------------------------------+
|       CONSTANT_VISCOSITY|          CONSTANT_PRANDTL|         CONSTANT_DENSITY|
+------------------------------------------------------------------------------+
-- Fluid properties:
+------------------------------------------------------------------------------+
|                  Name|    Dim. value|    Ref. value|      Unit|Non-dim. value|
+------------------------------------------------------------------------------+
|             Viscosity|      1.92e-05|        11.424|   N.s/m^2|   1.68067e-06|
+------------------------------------------------------------------------------+
|        Prandtl (Lam.)|             -|             -|         -|          0.72|
|       Prandtl (Turb.)|             -|             -|         -|           0.9|
+------------------------------------------------------------------------------+
|          Bulk Modulus|        142000|             1|        Pa|        142000|
+------------------------------------------------------------------------------+
-- Initial and free-stream conditions:
+------------------------------------------------------------------------------+
|                  Name|    Dim. value|    Ref. value|      Unit|Non-dim. value|
+------------------------------------------------------------------------------+
|      Dynamic Pressure|             0|       108.756|        Pa|             0|
|        Total Pressure|       54.3781|       108.756|        Pa|           0.5|
|               Density|           1.2|           1.2|    kg/m^3|             1|
|            Velocity-X|        9.2372|       9.51999|       m/s|      0.970296|
|            Velocity-Y|        2.3031|       9.51999|       m/s|      0.241923|
|    Velocity Magnitude|       9.51999|       9.51999|       m/s|             1|
+------------------------------------------------------------------------------+
|             Viscosity|      1.92e-05|        11.424|   N.s/m^2|   1.68067e-06|
|          Conductivity|             -|       3.59312|   W/m^2.K|             -|
|     Turb. Kin. Energy|       1.35945|       90.6301|   m^2/s^2|         0.015|
|     Spec. Dissipation|       8496.58|       9.51999|       1/s|       892.499|
+------------------------------------------------------------------------------+
|           Mach Number|             -|             -|         -|     0.0276747|
|       Reynolds Number|             -|             -|         -|        594999|
+------------------------------------------------------------------------------+
Initialize Jacobian structure (Navier-Stokes). MG level: 0.
Initialize Jacobian structure (SA model).

------------------- Numerics Preprocessing ( Zone 0 ) -------------------

----------------- Integration Preprocessing ( Zone 0 ) ------------------

------------------- Iteration Preprocessing ( Zone 0 ) ------------------
Euler/Navier-Stokes/RANS fluid iteration.

------------------------------ Begin Solver -----------------------------

Simulation Run using the Single-zone Driver
+-----------------------------------------------------------------------------+
|  Inner_Iter|     Min CFL|     Max CFL|      rms[P]|  Cauchy[CD]|          CD|
+-----------------------------------------------------------------------------+
|           0|  2.4000e+00|  2.4000e+00|   -5.346934|  1.0000e+00|    0.172709|
|          10|  1.4860e+01|  1.4860e+01|   -5.382492|  4.1066e-04|    0.156089|
|          20|  6.3896e+00|  6.3896e+00|   -5.607885|  3.7473e-03|    0.065939|
|          30|  3.9563e+01|  3.9563e+01|   -5.635005|  4.2586e-03|    0.078721|
|          40|  2.0413e+01|  2.0413e+01|   -5.795349|  4.4413e-03|    0.080157|
|          50|  1.0533e+01|  1.0533e+01|   -5.894964|  4.6379e-03|    0.075720|
|          60|  5.4348e+00|  5.4348e+00|   -5.929284|  4.7869e-03|    0.079445|
|          70|  3.3651e+01|  3.3651e+01|   -6.000172|  4.8734e-03|    0.077283|
|          80|  1.7363e+01|  1.7363e+01|   -6.012280|  5.0790e-03|    0.072143|
|          90|  7.4657e+00|  7.4657e+00|   -6.048342|  5.1623e-03|    0.071059|
|         100|  4.6226e+01|  4.6226e+01|   -6.051383|  5.2739e-03|    0.073851|
|         110|  2.3852e+01|  2.3852e+01|   -6.014653|  5.3266e-03|    0.075168|
|         120|  1.2307e+01|  1.2307e+01|   -6.082498|  5.3866e-03|    0.073770|
|         130|  5.2917e+00|  5.2917e+00|   -6.132959|  5.5105e-03|    0.070672|
|         140|  3.2765e+01|  3.2765e+01|   -6.119131|  5.5228e-03|    0.070745|
|         150|  9.7836e+00|  9.7836e+00|   -6.193275|  5.5587e-03|    0.071234|
|         160|  5.0481e+01|  5.0481e+01|   -6.197189|  5.6141e-03|    0.069849|
|         170|  1.2561e+01|  1.2561e+01|   -6.356129|  5.6901e-03|    0.067949|
|         180|  6.4814e+00|  6.4814e+00|   -6.361371|  5.7228e-03|    0.067131|
|         190|  4.0131e+01|  4.0131e+01|   -6.362072|  5.7351e-03|    0.066825|
|         200|  5.7789e+00|  5.7789e+00|   -6.484396|  5.7978e-03|    0.065257|
+-----------------------------------------------------------------------+
|        File Writing Summary       |              Filename             |
+-----------------------------------------------------------------------+
|SU2 binary restart                 |restart_flow_G1.dat                |
|Paraview                           |flow_G1.vtu                        |
|Paraview surface                   |surface_flow_G1.vtu                |
+-----------------------------------------------------------------------+
+-----------------------------------------------------------------------------+
|  Inner_Iter|     Min CFL|     Max CFL|      rms[P]|  Cauchy[CD]|          CD|
+-----------------------------------------------------------------------------+
|         210|  3.5781e+01|  3.5781e+01|   -6.459807|  5.8302e-03|    0.064446|
|         220|  1.8462e+01|  1.8462e+01|   -6.514513|  5.8650e-03|    0.063577|
|         230|  9.5261e+00|  9.5261e+00|   -6.633219|  5.8958e-03|    0.062808|
|         240|  4.9153e+01|  4.9153e+01|   -6.561483|  5.9228e-03|    0.062132|
|         250|  4.9153e+01|  4.9153e+01|   -6.606814|  5.9918e-03|    0.060407|
|         260|  1.2231e+01|  1.2231e+01|   -6.701322|  5.6160e-03|    0.059535|
|         270|  5.2590e+01|  5.2590e+01|   -6.584821|  2.3010e-03|    0.058995|
|         280|  1.8844e+01|  1.8844e+01|   -6.617113|  1.8103e-03|    0.058481|
|         290|  6.7521e+01|  6.7521e+01|   -6.439354|  1.6526e-03|    0.057856|
|         300|  3.4840e+01|  3.4840e+01|   -6.526399|  1.4628e-03|    0.057684|
|         310|  6.0203e+01|  6.0203e+01|   -6.446599|  1.3270e-03|    0.057353|
|         320|  7.2243e+00|  7.2243e+00|   -6.433482|  1.2560e-03|    0.056966|
|         330|  4.4731e+01|  4.4731e+01|   -6.556869|  1.0516e-03|    0.056937|
|         340|  2.3080e+01|  2.3080e+01|   -6.625292|  9.7020e-04|    0.056906|
|         350|  5.7431e+01|  5.7431e+01|   -6.502030|  8.6093e-04|    0.056850|
|         360|  5.7431e+01|  5.7431e+01|   -6.520263|  8.1180e-04|    0.056924|
|         370|  2.4694e+01|  2.4694e+01|   -6.663497|  7.5641e-04|    0.057039|
|         380|  1.2742e+01|  1.2742e+01|   -6.720988|  6.3804e-04|    0.057178|
|         390|  6.5745e+00|  6.5745e+00|   -6.672435|  6.3262e-04|    0.057348|
|         400|  4.0707e+01|  4.0707e+01|   -6.715493|  6.0215e-04|    0.057485|
+-----------------------------------------------------------------------+
|        File Writing Summary       |              Filename             |
+-----------------------------------------------------------------------+
|SU2 binary restart                 |restart_flow_G1.dat                |
|Paraview                           |flow_G1.vtu                        |
|Paraview surface                   |surface_flow_G1.vtu                |
+-----------------------------------------------------------------------+
+-----------------------------------------------------------------------------+
|  Inner_Iter|     Min CFL|     Max CFL|      rms[P]|  Cauchy[CD]|          CD|
+-----------------------------------------------------------------------------+
|         410|  2.1004e+01|  2.1004e+01|   -6.727478|  5.5343e-04|    0.057652|
|         420|  6.2718e+00|  6.2718e+00|   -6.685001|  4.9331e-04|    0.058049|
|         430|  3.8833e+01|  3.8833e+01|   -6.712369|  4.6875e-04|    0.058253|
|         440|  8.0525e+00|  8.0525e+00|   -6.615061|  4.7858e-04|    0.058805|
|         450|  4.9859e+01|  4.9859e+01|   -6.655227|  4.2636e-04|    0.059067|
|         460|  1.4888e+01|  1.4888e+01|   -6.690549|  4.1294e-04|    0.059543|
|         470|  6.4015e+01|  6.4015e+01|   -6.558935|  3.9631e-04|    0.059996|
|         480|  1.9115e+01|  1.9115e+01|   -6.638020|  3.8435e-04|    0.060466|
|         490|  6.8491e+01|  6.8491e+01|   -6.531133|  3.7750e-04|    0.060970|
|         500|  1.7043e+01|  1.7043e+01|   -6.641031|  3.2773e-04|    0.061452|
|         510|  7.3281e+01|  7.3281e+01|   -6.588523|  3.0894e-04|    0.061853|
|         520|  1.8235e+01|  1.8235e+01|   -6.704828|  3.0347e-04|    0.062257|
|         530|  9.4087e+00|  9.4087e+00|   -6.704121|  2.9385e-04|    0.062531|
|         540|  5.8256e+01|  5.8256e+01|   -6.798798|  2.7486e-04|    0.062681|
|         550|  3.0059e+01|  3.0059e+01|   -6.852890|  2.7466e-04|    0.062847|
|         560|  8.9755e+00|  8.9755e+00|   -6.830877|  2.6982e-04|    0.063058|
|         570|  5.5574e+01|  5.5574e+01|   -6.907341|  2.5690e-04|    0.063122|
|         580|  2.8675e+01|  2.8675e+01|   -6.936999|  2.5873e-04|    0.063197|
|         590|  1.4796e+01|  1.4796e+01|   -6.940789|  2.5876e-04|    0.063244|
|         600|  7.6342e+00|  7.6342e+00|   -6.902660|  2.5713e-04|    0.063263|
+-----------------------------------------------------------------------+
|        File Writing Summary       |              Filename             |
+-----------------------------------------------------------------------+
|SU2 binary restart                 |restart_flow_G1.dat                |
|Paraview                           |flow_G1.vtu                        |
|Paraview surface                   |surface_flow_G1.vtu                |
+-----------------------------------------------------------------------+
+-----------------------------------------------------------------------------+
|  Inner_Iter|     Min CFL|     Max CFL|      rms[P]|  Cauchy[CD]|          CD|
+-----------------------------------------------------------------------------+
|         610|  4.7269e+01|  4.7269e+01|   -6.939501|  2.5406e-04|    0.063252|
|         620|  6.8068e+01|  6.8068e+01|   -6.866797|  2.5201e-04|    0.063188|
|         630|  1.4115e+01|  1.4115e+01|   -6.892504|  2.5069e-04|    0.063082|
|         640|  7.2828e+01|  7.2828e+01|   -6.841372|  2.4763e-04|    0.062988|
|         650|  7.2828e+01|  7.2828e+01|   -6.800910|  2.5163e-04|    0.062751|
|         660|  1.8122e+01|  1.8122e+01|   -6.845095|  2.5210e-04|    0.062573|
|         670|  9.3505e+00|  9.3505e+00|   -6.844682|  2.4164e-04|    0.062437|
|         680|  5.7896e+01|  5.7896e+01|   -6.894762|  2.3728e-04|    0.062342|
|         690|  2.9873e+01|  2.9873e+01|   -6.907694|  2.1999e-04|    0.062223|
|         700|  7.4333e+01|  7.4333e+01|   -6.926919|  2.1764e-04|    0.062019|
|         710|  7.4333e+01|  7.4333e+01|   -7.010944|  2.0812e-04|    0.061781|
|         720|  7.4333e+01|  7.4333e+01|   -7.118257|  1.9852e-04|    0.061568|
|         730|  3.1962e+01|  3.1962e+01|   -7.273795|  1.8286e-04|    0.061489|
|         740|  1.6492e+01|  1.6492e+01|   -7.299977|  1.6632e-04|    0.061399|
|         750|  7.0911e+01|  7.0911e+01|   -7.254720|  1.5128e-04|    0.061293|
|         760|  1.0211e+01|  1.0211e+01|   -7.205266|  1.4196e-04|    0.061125|
|         770|  6.3225e+01|  6.3225e+01|   -7.269471|  1.2857e-04|    0.061056|
|         780|  3.2623e+01|  3.2623e+01|   -7.285904|  1.2028e-04|    0.060989|
|         790|  1.6833e+01|  1.6833e+01|   -7.271723|  1.1797e-04|    0.060897|
|         800|  7.2377e+01|  7.2377e+01|   -7.188352|  1.1603e-04|    0.060779|
+-----------------------------------------------------------------------+
|        File Writing Summary       |              Filename             |
+-----------------------------------------------------------------------+
|SU2 binary restart                 |restart_flow_G1.dat                |
|Paraview                           |flow_G1.vtu                        |
|Paraview surface                   |surface_flow_G1.vtu                |
+-----------------------------------------------------------------------+
+-----------------------------------------------------------------------------+
|  Inner_Iter|     Min CFL|     Max CFL|      rms[P]|  Cauchy[CD]|          CD|
+-----------------------------------------------------------------------------+
|         810|  7.2377e+01|  7.2377e+01|   -7.137261|  1.1611e-04|    0.060567|
|         820|  2.1612e+01|  2.1612e+01|   -7.194169|  1.1797e-04|    0.060456|
|         830|  1.1151e+01|  1.1151e+01|   -7.184410|  1.1952e-04|    0.060343|
|         840|  6.9045e+01|  6.9045e+01|   -7.259564|  1.2145e-04|    0.060247|
|         850|  3.5626e+01|  3.5626e+01|   -7.296823|  1.2362e-04|    0.060173|
|         860|  1.8382e+01|  1.8382e+01|   -7.320432|  1.2738e-04|    0.060067|
|         870|  9.4848e+00|  9.4848e+00|   -7.340414|  1.2912e-04|    0.059960|
|         880|  5.8727e+01|  5.8727e+01|   -7.416106|  1.2820e-04|    0.059877|
|         890|  3.0302e+01|  3.0302e+01|   -7.481607|  1.2763e-04|    0.059797|
|         900|  1.5635e+01|  1.5635e+01|   -7.529677|  1.2164e-04|    0.059710|
|         910|  8.0674e+00|  8.0674e+00|   -7.507545|  1.1872e-04|    0.059605|
|         920|  4.9951e+01|  4.9951e+01|   -7.587155|  1.1598e-04|    0.059537|
|         930|  5.9941e+01|  5.9941e+01|   -7.555612|  1.1915e-04|    0.059363|
|         940|  5.9941e+01|  5.9941e+01|   -7.524482|  1.2108e-04|    0.059196|
|         950|  8.6316e+00|  8.6316e+00|   -7.522003|  1.1817e-04|    0.059065|
|         960|  5.3444e+01|  5.3444e+01|   -7.557224|  1.1109e-04|    0.059004|
|         970|  2.7576e+01|  2.7576e+01|   -7.566355|  1.0484e-04|    0.058947|
|         980|  5.7182e+01|  5.7182e+01|   -7.541724|  1.0662e-04|    0.058824|
|         990|  1.4229e+01|  1.4229e+01|   -7.579044|  1.0636e-04|    0.058740|
|        1000|  7.3417e+00|  7.3417e+00|   -7.557380|  1.0508e-04|    0.058666|
+-----------------------------------------------------------------------+
|        File Writing Summary       |              Filename             |
+-----------------------------------------------------------------------+
|SU2 binary restart                 |restart_flow_G1.dat                |
|Paraview                           |flow_G1.vtu                        |
|Paraview surface                   |surface_flow_G1.vtu                |
+-----------------------------------------------------------------------+
+-----------------------------------------------------------------------------+
|  Inner_Iter|     Min CFL|     Max CFL|      rms[P]|  Cauchy[CD]|          CD|
+-----------------------------------------------------------------------------+
|        1010|  4.5458e+01|  4.5458e+01|   -7.624758|  1.0020e-04|    0.058620|
|        1020|  1.1311e+01|  1.1311e+01|   -7.656538|  1.0069e-04|    0.058539|
|        1030|  5.8364e+00|  5.8364e+00|   -7.635206|  1.0095e-04|    0.058466|
|        1040|  3.6138e+01|  3.6138e+01|   -7.695262|  9.8766e-05|    0.058428|
|        1050|  6.2446e+00|  6.2446e+00|   -7.693290|  9.8314e-05|    0.058321|
|        1060|  3.8665e+01|  3.8665e+01|   -7.764162|  9.1527e-05|    0.058279|
|        1070|  1.9950e+01|  1.9950e+01|   -7.788829|  8.9067e-05|    0.058229|
|        1080|  4.9642e+01|  4.9642e+01|   -7.754168|  8.8225e-05|    0.058137|
|        1090|  7.1485e+00|  7.1485e+00|   -7.767217|  8.8408e-05|    0.058037|
|        1100|  4.4262e+01|  4.4262e+01|   -7.798524|  8.7368e-05|    0.057989|
|        1110|  2.2838e+01|  2.2838e+01|   -7.817161|  8.4835e-05|    0.057947|
|        1120|  4.7357e+01|  4.7357e+01|   -7.763079|  8.4292e-05|    0.057853|
|        1130|  4.7357e+01|  4.7357e+01|   -7.749129|  8.5575e-05|    0.057738|
|        1140|  2.0363e+01|  2.0363e+01|   -7.794274|  8.4104e-05|    0.057695|
|        1150|  1.0507e+01|  1.0507e+01|   -7.783528|  8.2766e-05|    0.057641|
|        1160|  4.5177e+01|  4.5177e+01|   -7.777885|  8.0957e-05|    0.057581|
|        1170|  4.5177e+01|  4.5177e+01|   -7.784895|  8.2396e-05|    0.057477|
|        1180|  1.6188e+01|  1.6188e+01|   -7.833198|  7.7318e-05|    0.057430|
|        1190|  8.3525e+00|  8.3525e+00|   -7.813281|  7.2739e-05|    0.057377|
|        1200|  4.3097e+01|  4.3097e+01|   -7.841333|  6.9460e-05|    0.057328|
+-----------------------------------------------------------------------+
|        File Writing Summary       |              Filename             |
+-----------------------------------------------------------------------+
|SU2 binary restart                 |restart_flow_G1.dat                |
|Paraview                           |flow_G1.vtu                        |
|Paraview surface                   |surface_flow_G1.vtu                |
+-----------------------------------------------------------------------+
+-----------------------------------------------------------------------------+
|  Inner_Iter|     Min CFL|     Max CFL|      rms[P]|  Cauchy[CD]|          CD|
+-----------------------------------------------------------------------------+
|        1210|  4.3097e+01|  4.3097e+01|   -7.845853|  7.0784e-05|    0.057234|
|        1220|  7.4471e+00|  7.4471e+00|   -7.868304|  7.1442e-05|    0.057161|
|        1230|  4.6111e+01|  4.6111e+01|   -7.887950|  6.8353e-05|    0.057115|
|        1240|  2.3792e+01|  2.3792e+01|   -7.920518|  6.6245e-05|    0.057084|
|        1250|  4.1113e+01|  4.1113e+01|   -7.883223|  6.6489e-05|    0.057004|
|        1260|  4.1113e+01|  4.1113e+01|   -7.876858|  6.8381e-05|    0.056910|
|        1270|  4.1113e+01|  4.1113e+01|   -7.869063|  6.8891e-05|    0.056817|
|        1280|  4.1113e+01|  4.1113e+01|   -7.864087|  6.9606e-05|    0.056725|
|        1290|  4.1113e+01|  4.1113e+01|   -7.862155|  7.1813e-05|    0.056632|
|        1300|  1.4731e+01|  1.4731e+01|   -7.906445|  6.9244e-05|    0.056590|
|        1310|  7.6011e+00|  7.6011e+00|   -7.869268|  6.9504e-05|    0.056541|
|        1320|  3.9220e+01|  3.9220e+01|   -7.892485|  6.9367e-05|    0.056495|
|        1330|  3.9220e+01|  3.9220e+01|   -7.885794|  6.9275e-05|    0.056405|
|        1340|  3.9220e+01|  3.9220e+01|   -7.889267|  6.9051e-05|    0.056310|
|        1350|  3.9220e+01|  3.9220e+01|   -7.900213|  7.0849e-05|    0.056218|
|        1360|  3.9220e+01|  3.9220e+01|   -7.914870|  7.2796e-05|    0.056127|
|        1370|  2.0237e+01|  2.0237e+01|   -7.970779|  7.0232e-05|    0.056097|
|        1380|  1.0442e+01|  1.0442e+01|   -7.989345|  6.7373e-05|    0.056053|
|        1390|  3.7414e+01|  3.7414e+01|   -7.957776|  6.7974e-05|    0.055995|
|        1400|  3.7414e+01|  3.7414e+01|   -7.970145|  6.9333e-05|    0.055908|
+-----------------------------------------------------------------------+
|        File Writing Summary       |              Filename             |
+-----------------------------------------------------------------------+
|SU2 binary restart                 |restart_flow_G1.dat                |
|Paraview                           |flow_G1.vtu                        |
|Paraview surface                   |surface_flow_G1.vtu                |
+-----------------------------------------------------------------------+
+-----------------------------------------------------------------------------+
|  Inner_Iter|     Min CFL|     Max CFL|      rms[P]|  Cauchy[CD]|          CD|
+-----------------------------------------------------------------------------+
|        1410|  3.7414e+01|  3.7414e+01|   -7.978507|  7.0486e-05|    0.055819|
|        1420|  3.7414e+01|  3.7414e+01|   -7.987207|  6.9791e-05|    0.055733|
|        1430|  3.7414e+01|  3.7414e+01|   -7.993415|  7.1299e-05|    0.055648|
|        1440|  3.7414e+00|  3.7414e+00|   -7.996920|  7.2582e-05|    0.055563|
|        1450|  2.3166e+01|  2.3166e+01|   -8.048474|  7.1593e-05|    0.055538|
|        1460|  1.1953e+01|  1.1953e+01|   -8.053773|  6.9335e-05|    0.055501|
|        1470|  3.5692e+01|  3.5692e+01|   -8.012487|  6.8730e-05|    0.055443|
|        1480|  3.5692e+01|  3.5692e+01|   -8.008950|  7.0062e-05|    0.055363|
|        1490|  3.5692e+01|  3.5692e+01|   -8.002815|  7.2026e-05|    0.055283|
|        1500|  3.5692e+01|  3.5692e+01|   -7.999024|  7.1982e-05|    0.055204|
|        1510|  3.5692e+01|  3.5692e+01|   -7.997162|  7.1319e-05|    0.055127|
|        1520|  3.5692e+01|  3.5692e+01|   -7.996123|  7.0685e-05|    0.055049|
|        1530|  3.5692e+01|  3.5692e+01|   -7.995817|  7.0183e-05|    0.054971|
|        1540|  3.5692e+01|  3.5692e+01|   -7.995492|  6.9562e-05|    0.054893|
|        1550|  3.5692e+01|  3.5692e+01|   -7.997129|  7.0963e-05|    0.054816|
|        1560|  3.5692e+01|  3.5692e+01|   -8.000207|  7.2073e-05|    0.054739|
|        1570|  3.5692e+01|  3.5692e+01|   -8.004057|  7.3305e-05|    0.054662|
|        1580|  3.5692e+01|  3.5692e+01|   -8.009271|  7.2758e-05|    0.054586|
|        1590|  3.5692e+01|  3.5692e+01|   -8.015830|  7.2017e-05|    0.054510|
|        1600|  3.5692e+01|  3.5692e+01|   -8.022690|  7.1353e-05|    0.054434|
+-----------------------------------------------------------------------+
|        File Writing Summary       |              Filename             |
+-----------------------------------------------------------------------+
|SU2 binary restart                 |restart_flow_G1.dat                |
|Paraview                           |flow_G1.vtu                        |
|Paraview surface                   |surface_flow_G1.vtu                |
+-----------------------------------------------------------------------+
+-----------------------------------------------------------------------------+
|  Inner_Iter|     Min CFL|     Max CFL|      rms[P]|  Cauchy[CD]|          CD|
+-----------------------------------------------------------------------------+
|        1610|  3.5692e+01|  3.5692e+01|   -8.029185|  7.0725e-05|    0.054358|
|        1620|  3.5692e+01|  3.5692e+01|   -8.035915|  7.2544e-05|    0.054283|
|        1630|  1.5347e+01|  1.5347e+01|   -8.077437|  7.1941e-05|    0.054255|
|        1640|  7.9186e+00|  7.9186e+00|   -8.071607|  7.1118e-05|    0.054217|
|        1650|  3.4049e+01|  3.4049e+01|   -8.062672|  6.9260e-05|    0.054176|
|        1660|  3.4049e+01|  3.4049e+01|   -8.062649|  6.8525e-05|    0.054106|
|        1670|  3.4049e+01|  3.4049e+01|   -8.065983|  6.7984e-05|    0.054033|
|        1680|  3.4049e+01|  3.4049e+01|   -8.069167|  6.7460e-05|    0.053961|
|        1690|  3.4049e+01|  3.4049e+01|   -8.073313|  6.6866e-05|    0.053891|
|        1700|  3.4049e+01|  3.4049e+01|   -8.076740|  6.8683e-05|    0.053821|
|        1710|  3.4049e+01|  3.4049e+01|   -8.079645|  6.9995e-05|    0.053751|
|        1720|  3.4049e+01|  3.4049e+01|   -8.081062|  7.0479e-05|    0.053681|
|        1730|  3.4049e+01|  3.4049e+01|   -8.082267|  7.0034e-05|    0.053612|
|        1740|  3.4049e+01|  3.4049e+01|   -8.083291|  6.9543e-05|    0.053544|
|        1750|  3.4049e+01|  3.4049e+01|   -8.083268|  6.9119e-05|    0.053476|
|        1760|  3.4049e+01|  3.4049e+01|   -8.082569|  6.8730e-05|    0.053409|
|        1770|  3.4049e+01|  3.4049e+01|   -8.082260|  6.8301e-05|    0.053342|
|        1780|  3.4049e+01|  3.4049e+01|   -8.082603|  6.7822e-05|    0.053275|
|        1790|  3.4049e+01|  3.4049e+01|   -8.082841|  6.7366e-05|    0.053209|
|        1800|  3.4049e+01|  3.4049e+01|   -8.083129|  6.6912e-05|    0.053143|
+-----------------------------------------------------------------------+
|        File Writing Summary       |              Filename             |
+-----------------------------------------------------------------------+
|SU2 binary restart                 |restart_flow_G1.dat                |
|Paraview                           |flow_G1.vtu                        |
|Paraview surface                   |surface_flow_G1.vtu                |
+-----------------------------------------------------------------------+
+-----------------------------------------------------------------------------+
|  Inner_Iter|     Min CFL|     Max CFL|      rms[P]|  Cauchy[CD]|          CD|
+-----------------------------------------------------------------------------+
|        1810|  3.4049e+01|  3.4049e+01|   -8.084461|  6.6449e-05|    0.053078|
|        1820|  3.4049e+01|  3.4049e+01|   -8.086854|  6.5981e-05|    0.053013|
|        1830|  3.4049e+01|  3.4049e+01|   -8.089438|  6.5504e-05|    0.052949|
|        1840|  3.4049e+01|  3.4049e+01|   -8.092642|  6.5005e-05|    0.052885|
|        1850|  3.4049e+01|  3.4049e+01|   -8.096644|  6.4494e-05|    0.052822|
|        1860|  3.4049e+01|  3.4049e+01|   -8.101118|  6.3981e-05|    0.052759|
|        1870|  3.4049e+01|  3.4049e+01|   -8.105710|  6.3460e-05|    0.052697|
|        1880|  3.4049e+01|  3.4049e+01|   -8.110431|  6.4803e-05|    0.052635|
|        1890|  3.4049e+01|  3.4049e+01|   -8.115211|  6.5771e-05|    0.052573|
|        1900|  3.4049e+01|  3.4049e+01|   -8.119904|  6.6561e-05|    0.052512|
|        1910|  3.4049e+01|  3.4049e+01|   -8.124340|  6.6187e-05|    0.052451|
|        1920|  3.4049e+01|  3.4049e+01|   -8.128451|  6.5684e-05|    0.052391|
|        1930|  3.4049e+01|  3.4049e+01|   -8.132139|  6.5222e-05|    0.052331|
|        1940|  3.4049e+01|  3.4049e+01|   -8.135135|  6.4796e-05|    0.052271|
|        1950|  3.4049e+01|  3.4049e+01|   -8.137591|  6.4393e-05|    0.052212|
|        1960|  3.4049e+01|  3.4049e+01|   -8.139696|  6.3941e-05|    0.052152|
|        1970|  3.4049e+01|  3.4049e+01|   -8.141444|  6.3502e-05|    0.052093|
|        1980|  3.4049e+01|  3.4049e+01|   -8.142847|  6.3105e-05|    0.052035|
|        1990|  3.4049e+01|  3.4049e+01|   -8.143927|  6.2725e-05|    0.051976|
|        2000|  3.4049e+01|  3.4049e+01|   -8.144685|  6.2352e-05|    0.051918|
+-----------------------------------------------------------------------+
|        File Writing Summary       |              Filename             |
+-----------------------------------------------------------------------+
|SU2 binary restart                 |restart_flow_G1.dat                |
|Paraview                           |flow_G1.vtu                        |
|Paraview surface                   |surface_flow_G1.vtu                |
+-----------------------------------------------------------------------+
+-----------------------------------------------------------------------------+
|  Inner_Iter|     Min CFL|     Max CFL|      rms[P]|  Cauchy[CD]|          CD|
+-----------------------------------------------------------------------------+
|        2010|  3.4049e+01|  3.4049e+01|   -8.145254|  6.1993e-05|    0.051859|
|        2020|  3.4049e+01|  3.4049e+01|   -8.145939|  6.1647e-05|    0.051801|
|        2030|  3.4049e+01|  3.4049e+01|   -8.146638|  6.1310e-05|    0.051742|
|        2040|  3.4049e+01|  3.4049e+01|   -8.147418|  6.0984e-05|    0.051684|
|        2050|  3.4049e+01|  3.4049e+01|   -8.148437|  6.0658e-05|    0.051627|
|        2060|  3.4049e+01|  3.4049e+01|   -8.149744|  6.0326e-05|    0.051570|
|        2070|  3.4049e+01|  3.4049e+01|   -8.151561|  5.9997e-05|    0.051513|
|        2080|  3.4049e+01|  3.4049e+01|   -8.153615|  5.9673e-05|    0.051457|
|        2090|  3.4049e+01|  3.4049e+01|   -8.155784|  5.9358e-05|    0.051401|
|        2100|  3.4049e+01|  3.4049e+01|   -8.158330|  5.9046e-05|    0.051346|
|        2110|  3.4049e+01|  3.4049e+01|   -8.161099|  5.8737e-05|    0.051291|
|        2120|  3.4049e+01|  3.4049e+01|   -8.164082|  5.8431e-05|    0.051236|
|        2130|  3.4049e+01|  3.4049e+01|   -8.167417|  5.8120e-05|    0.051182|
|        2140|  3.4049e+01|  3.4049e+01|   -8.171073|  5.7802e-05|    0.051128|
|        2150|  3.4049e+01|  3.4049e+01|   -8.174852|  5.7482e-05|    0.051075|
|        2160|  3.4049e+01|  3.4049e+01|   -8.178638|  5.7161e-05|    0.051022|
|        2170|  3.4049e+01|  3.4049e+01|   -8.182512|  5.6836e-05|    0.050970|
|        2180|  3.4049e+01|  3.4049e+01|   -8.186409|  5.6506e-05|    0.050918|
|        2190|  3.4049e+01|  3.4049e+01|   -8.190224|  5.6171e-05|    0.050867|
|        2200|  3.4049e+01|  3.4049e+01|   -8.193849|  5.5826e-05|    0.050816|
+-----------------------------------------------------------------------+
|        File Writing Summary       |              Filename             |
+-----------------------------------------------------------------------+
|SU2 binary restart                 |restart_flow_G1.dat                |
|Paraview                           |flow_G1.vtu                        |
|Paraview surface                   |surface_flow_G1.vtu                |
+-----------------------------------------------------------------------+
+-----------------------------------------------------------------------------+
|  Inner_Iter|     Min CFL|     Max CFL|      rms[P]|  Cauchy[CD]|          CD|
+-----------------------------------------------------------------------------+
|        2210|  3.4049e+01|  3.4049e+01|   -8.197344|  5.5474e-05|    0.050765|
|        2220|  3.4049e+01|  3.4049e+01|   -8.200819|  5.5121e-05|    0.050715|
|        2230|  3.4049e+01|  3.4049e+01|   -8.203996|  5.4762e-05|    0.050666|
|        2240|  3.4049e+01|  3.4049e+01|   -8.207025|  5.4392e-05|    0.050616|
|        2250|  3.4049e+01|  3.4049e+01|   -8.209916|  5.4011e-05|    0.050567|
|        2260|  3.4049e+01|  3.4049e+01|   -8.212537|  5.3620e-05|    0.050519|
|        2270|  3.4049e+01|  3.4049e+01|   -8.214870|  5.3219e-05|    0.050470|
|        2280|  3.4049e+01|  3.4049e+01|   -8.217123|  5.2809e-05|    0.050422|
|        2290|  3.4049e+01|  3.4049e+01|   -8.219182|  5.2400e-05|    0.050374|
|        2300|  3.4049e+01|  3.4049e+01|   -8.221051|  5.2003e-05|    0.050327|
|        2310|  3.4049e+01|  3.4049e+01|   -8.222714|  5.1622e-05|    0.050279|
|        2320|  3.4049e+01|  3.4049e+01|   -8.224193|  5.1253e-05|    0.050232|
|        2330|  3.4049e+01|  3.4049e+01|   -8.225591|  5.0898e-05|    0.050184|
|        2340|  3.4049e+01|  3.4049e+01|   -8.226965|  5.0554e-05|    0.050137|
|        2350|  3.4049e+01|  3.4049e+01|   -8.228295|  5.0224e-05|    0.050090|
|        2360|  3.4049e+01|  3.4049e+01|   -8.229740|  4.9905e-05|    0.050043|
|        2370|  3.4049e+01|  3.4049e+01|   -8.231258|  4.9599e-05|    0.049996|
|        2380|  3.4049e+01|  3.4049e+01|   -8.232801|  4.9311e-05|    0.049949|
|        2390|  3.4049e+01|  3.4049e+01|   -8.234513|  4.9038e-05|    0.049902|
|        2400|  3.4049e+01|  3.4049e+01|   -8.236327|  4.8773e-05|    0.049856|
+-----------------------------------------------------------------------+
|        File Writing Summary       |              Filename             |
+-----------------------------------------------------------------------+
|SU2 binary restart                 |restart_flow_G1.dat                |
|Paraview                           |flow_G1.vtu                        |
|Paraview surface                   |surface_flow_G1.vtu                |
+-----------------------------------------------------------------------+
+-----------------------------------------------------------------------------+
|  Inner_Iter|     Min CFL|     Max CFL|      rms[P]|  Cauchy[CD]|          CD|
+-----------------------------------------------------------------------------+
|        2410|  3.4049e+01|  3.4049e+01|   -8.238379|  4.8512e-05|    0.049809|
|        2420|  3.4049e+01|  3.4049e+01|   -8.240586|  4.8252e-05|    0.049764|
|        2430|  3.4049e+01|  3.4049e+01|   -8.242844|  4.7989e-05|    0.049718|
|        2440|  3.4049e+01|  3.4049e+01|   -8.245351|  4.7724e-05|    0.049674|
|        2450|  3.4049e+01|  3.4049e+01|   -8.248039|  4.7462e-05|    0.049629|
|        2460|  3.4049e+01|  3.4049e+01|   -8.250831|  4.7202e-05|    0.049585|
|        2470|  3.4049e+01|  3.4049e+01|   -8.253726|  4.6941e-05|    0.049542|
|        2480|  3.4049e+01|  3.4049e+01|   -8.256728|  4.6681e-05|    0.049499|
|        2490|  3.4049e+01|  3.4049e+01|   -8.259804|  4.6418e-05|    0.049456|
|        2500|  3.4049e+01|  3.4049e+01|   -8.263068|  4.6148e-05|    0.049414|
|        2510|  3.4049e+01|  3.4049e+01|   -8.266594|  4.5877e-05|    0.049372|
|        2520|  3.4049e+01|  3.4049e+01|   -8.270344|  4.5606e-05|    0.049330|
|        2530|  3.4049e+01|  3.4049e+01|   -8.274181|  4.5334e-05|    0.049289|
|        2540|  3.4049e+01|  3.4049e+01|   -8.277975|  4.5056e-05|    0.049248|
|        2550|  3.4049e+01|  3.4049e+01|   -8.281900|  4.4770e-05|    0.049208|
|        2560|  3.4049e+01|  3.4049e+01|   -8.285825|  4.4476e-05|    0.049167|
|        2570|  3.4049e+01|  3.4049e+01|   -8.289650|  4.4174e-05|    0.049127|
|        2580|  3.4049e+01|  3.4049e+01|   -8.293439|  4.3865e-05|    0.049088|
|        2590|  3.4049e+01|  3.4049e+01|   -8.297021|  4.3550e-05|    0.049048|
|        2600|  3.4049e+01|  3.4049e+01|   -8.300302|  4.3229e-05|    0.049009|
+-----------------------------------------------------------------------+
|        File Writing Summary       |              Filename             |
+-----------------------------------------------------------------------+
|SU2 binary restart                 |restart_flow_G1.dat                |
|Paraview                           |flow_G1.vtu                        |
|Paraview surface                   |surface_flow_G1.vtu                |
+-----------------------------------------------------------------------+
+-----------------------------------------------------------------------------+
|  Inner_Iter|     Min CFL|     Max CFL|      rms[P]|  Cauchy[CD]|          CD|
+-----------------------------------------------------------------------------+
|        2610|  3.4049e+01|  3.4049e+01|   -8.303327|  4.2900e-05|    0.048970|
|        2620|  3.4049e+01|  3.4049e+01|   -8.306264|  4.2562e-05|    0.048932|
|        2630|  3.4049e+01|  3.4049e+01|   -8.309041|  4.2217e-05|    0.048894|
|        2640|  3.4049e+01|  3.4049e+01|   -8.311498|  4.1867e-05|    0.048855|
|        2650|  3.4049e+01|  3.4049e+01|   -8.313560|  4.1521e-05|    0.048818|
|        2660|  3.4049e+01|  3.4049e+01|   -8.315345|  4.1177e-05|    0.048780|
|        2670|  3.4049e+01|  3.4049e+01|   -8.316849|  4.0842e-05|    0.048743|
|        2680|  3.4049e+01|  3.4049e+01|   -8.318101|  4.0521e-05|    0.048705|
|        2690|  3.4049e+01|  3.4049e+01|   -8.319172|  4.0216e-05|    0.048668|
|        2700|  3.4049e+01|  3.4049e+01|   -8.320075|  3.9923e-05|    0.048631|
|        2710|  3.4049e+01|  3.4049e+01|   -8.321097|  3.9637e-05|    0.048595|
|        2720|  3.4049e+01|  3.4049e+01|   -8.322167|  3.9359e-05|    0.048558|
|        2730|  3.4049e+01|  3.4049e+01|   -8.323337|  3.9087e-05|    0.048522|
|        2740|  3.4049e+01|  3.4049e+01|   -8.324719|  3.8824e-05|    0.048485|
|        2750|  3.4049e+01|  3.4049e+01|   -8.326223|  3.8567e-05|    0.048450|
|        2760|  3.4049e+01|  3.4049e+01|   -8.327936|  3.8315e-05|    0.048414|
|        2770|  3.4049e+01|  3.4049e+01|   -8.329844|  3.8068e-05|    0.048378|
|        2780|  3.4049e+01|  3.4049e+01|   -8.331921|  3.7827e-05|    0.048343|
|        2790|  3.4049e+01|  3.4049e+01|   -8.334412|  3.7591e-05|    0.048308|
|        2800|  3.4049e+01|  3.4049e+01|   -8.337080|  3.7361e-05|    0.048273|
+-----------------------------------------------------------------------+
|        File Writing Summary       |              Filename             |
+-----------------------------------------------------------------------+
|SU2 binary restart                 |restart_flow_G1.dat                |
|Paraview                           |flow_G1.vtu                        |
|Paraview surface                   |surface_flow_G1.vtu                |
+-----------------------------------------------------------------------+
+-----------------------------------------------------------------------------+
|  Inner_Iter|     Min CFL|     Max CFL|      rms[P]|  Cauchy[CD]|          CD|
+-----------------------------------------------------------------------------+
|        2810|  3.4049e+01|  3.4049e+01|   -8.340038|  3.7136e-05|    0.048239|
|        2820|  3.4049e+01|  3.4049e+01|   -8.343183|  3.6915e-05|    0.048204|
|        2830|  3.4049e+01|  3.4049e+01|   -8.346454|  3.6699e-05|    0.048170|
|        2840|  3.4049e+01|  3.4049e+01|   -8.349842|  3.6488e-05|    0.048136|
|        2850|  3.4049e+01|  3.4049e+01|   -8.353350|  3.6283e-05|    0.048102|
|        2860|  3.4049e+01|  3.4049e+01|   -8.357020|  3.6079e-05|    0.048068|
|        2870|  3.4049e+01|  3.4049e+01|   -8.360821|  3.5874e-05|    0.048035|
|        2880|  3.4049e+01|  3.4049e+01|   -8.364647|  3.5671e-05|    0.048002|
|        2890|  3.4049e+01|  3.4049e+01|   -8.368425|  3.5468e-05|    0.047969|
|        2900|  3.4049e+01|  3.4049e+01|   -8.372170|  3.5263e-05|    0.047936|
|        2910|  3.4049e+01|  3.4049e+01|   -8.375741|  3.5056e-05|    0.047904|
|        2920|  3.4049e+01|  3.4049e+01|   -8.379185|  3.4848e-05|    0.047871|
|        2930|  3.4049e+01|  3.4049e+01|   -8.382520|  3.4636e-05|    0.047839|
|        2940|  3.4049e+01|  3.4049e+01|   -8.385726|  3.4416e-05|    0.047808|
|        2950|  3.4049e+01|  3.4049e+01|   -8.388805|  3.4192e-05|    0.047776|
|        2960|  3.4049e+01|  3.4049e+01|   -8.391859|  3.3966e-05|    0.047745|
|        2970|  3.4049e+01|  3.4049e+01|   -8.394660|  3.3738e-05|    0.047715|
|        2980|  3.4049e+01|  3.4049e+01|   -8.397329|  3.3507e-05|    0.047684|
|        2990|  3.4049e+01|  3.4049e+01|   -8.399850|  3.3274e-05|    0.047654|
|        3000|  3.4049e+01|  3.4049e+01|   -8.402333|  3.3043e-05|    0.047623|
+-----------------------------------------------------------------------+
|        File Writing Summary       |              Filename             |
+-----------------------------------------------------------------------+
|SU2 binary restart                 |restart_flow_G1.dat                |
|Paraview                           |flow_G1.vtu                        |
|Paraview surface                   |surface_flow_G1.vtu                |
+-----------------------------------------------------------------------+
+-----------------------------------------------------------------------------+
|  Inner_Iter|     Min CFL|     Max CFL|      rms[P]|  Cauchy[CD]|          CD|
+-----------------------------------------------------------------------------+
|        3010|  3.4049e+01|  3.4049e+01|   -8.404616|  3.2812e-05|    0.047594|
|        3020|  3.4049e+01|  3.4049e+01|   -8.406932|  3.2580e-05|    0.047564|
|        3030|  3.4049e+01|  3.4049e+01|   -8.409336|  3.2347e-05|    0.047535|
|        3040|  3.4049e+01|  3.4049e+01|   -8.411742|  3.2113e-05|    0.047505|
|        3050|  3.4049e+01|  3.4049e+01|   -8.414099|  3.1878e-05|    0.047477|
|        3060|  3.4049e+01|  3.4049e+01|   -8.416432|  3.1641e-05|    0.047448|
|        3070|  3.4049e+01|  3.4049e+01|   -8.418821|  3.1404e-05|    0.047419|
|        3080|  3.4049e+01|  3.4049e+01|   -8.421214|  3.1164e-05|    0.047391|
|        3090|  3.4049e+01|  3.4049e+01|   -8.423767|  3.0919e-05|    0.047363|
|        3100|  3.4049e+01|  3.4049e+01|   -8.426339|  3.0671e-05|    0.047335|
|        3110|  3.4049e+01|  3.4049e+01|   -8.428945|  3.0424e-05|    0.047308|
|        3120|  3.4049e+01|  3.4049e+01|   -8.431606|  3.0181e-05|    0.047280|
|        3130|  3.4049e+01|  3.4049e+01|   -8.434376|  2.9941e-05|    0.047253|
|        3140|  3.4049e+01|  3.4049e+01|   -8.436921|  2.9705e-05|    0.047226|
|        3150|  3.4049e+01|  3.4049e+01|   -8.439552|  2.9470e-05|    0.047199|
|        3160|  3.4049e+01|  3.4049e+01|   -8.442188|  2.9236e-05|    0.047173|
|        3170|  3.4049e+01|  3.4049e+01|   -8.444875|  2.9004e-05|    0.047146|
|        3180|  3.4049e+01|  3.4049e+01|   -8.447558|  2.8779e-05|    0.047120|
|        3190|  3.4049e+01|  3.4049e+01|   -8.450082|  2.8561e-05|    0.047094|
|        3200|  3.4049e+01|  3.4049e+01|   -8.452444|  2.8349e-05|    0.047068|
+-----------------------------------------------------------------------+
|        File Writing Summary       |              Filename             |
+-----------------------------------------------------------------------+
|SU2 binary restart                 |restart_flow_G1.dat                |
|Paraview                           |flow_G1.vtu                        |
|Paraview surface                   |surface_flow_G1.vtu                |
+-----------------------------------------------------------------------+
+-----------------------------------------------------------------------------+
|  Inner_Iter|     Min CFL|     Max CFL|      rms[P]|  Cauchy[CD]|          CD|
+-----------------------------------------------------------------------------+
|        3210|  3.4049e+01|  3.4049e+01|   -8.454776|  2.8142e-05|    0.047042|
|        3220|  3.4049e+01|  3.4049e+01|   -8.457202|  2.7938e-05|    0.047016|
|        3230|  3.4049e+01|  3.4049e+01|   -8.459653|  2.7736e-05|    0.046991|
|        3240|  3.4049e+01|  3.4049e+01|   -8.462094|  2.7536e-05|    0.046965|
|        3250|  3.4049e+01|  3.4049e+01|   -8.464541|  2.7341e-05|    0.046940|
|        3260|  3.4049e+01|  3.4049e+01|   -8.466967|  2.7152e-05|    0.046915|
|        3270|  3.4049e+01|  3.4049e+01|   -8.469360|  2.6968e-05|    0.046890|
|        3280|  3.4049e+01|  3.4049e+01|   -8.471783|  2.6789e-05|    0.046865|
|        3290|  3.4049e+01|  3.4049e+01|   -8.474230|  2.6618e-05|    0.046840|
|        3300|  3.4049e+01|  3.4049e+01|   -8.476771|  2.6453e-05|    0.046815|
|        3310|  3.4049e+01|  3.4049e+01|   -8.479434|  2.6292e-05|    0.046791|
|        3320|  3.4049e+01|  3.4049e+01|   -8.482202|  2.6134e-05|    0.046766|
|        3330|  3.4049e+01|  3.4049e+01|   -8.484985|  2.5981e-05|    0.046742|
|        3340|  3.4049e+01|  3.4049e+01|   -8.487703|  2.5833e-05|    0.046717|
|        3350|  3.4049e+01|  3.4049e+01|   -8.490656|  2.5688e-05|    0.046693|
|        3360|  3.4049e+01|  3.4049e+01|   -8.493809|  2.5545e-05|    0.046669|
|        3370|  3.4049e+01|  3.4049e+01|   -8.496953|  2.5403e-05|    0.046645|
|        3380|  3.4049e+01|  3.4049e+01|   -8.500173|  2.5260e-05|    0.046622|
|        3390|  3.4049e+01|  3.4049e+01|   -8.503405|  2.5118e-05|    0.046598|
|        3400|  3.4049e+01|  3.4049e+01|   -8.506654|  2.4977e-05|    0.046575|
+-----------------------------------------------------------------------+
|        File Writing Summary       |              Filename             |
+-----------------------------------------------------------------------+
|SU2 binary restart                 |restart_flow_G1.dat                |
|Paraview                           |flow_G1.vtu                        |
|Paraview surface                   |surface_flow_G1.vtu                |
+-----------------------------------------------------------------------+
+-----------------------------------------------------------------------------+
|  Inner_Iter|     Min CFL|     Max CFL|      rms[P]|  Cauchy[CD]|          CD|
+-----------------------------------------------------------------------------+
|        3410|  3.4049e+01|  3.4049e+01|   -8.509819|  2.4838e-05|    0.046552|
|        3420|  3.4049e+01|  3.4049e+01|   -8.513132|  2.4697e-05|    0.046529|
|        3430|  3.4049e+01|  3.4049e+01|   -8.516580|  2.4551e-05|    0.046506|
|        3440|  3.4049e+01|  3.4049e+01|   -8.520068|  2.4400e-05|    0.046484|
|        3450|  3.4049e+01|  3.4049e+01|   -8.523521|  2.4244e-05|    0.046462|
|        3460|  3.4049e+01|  3.4049e+01|   -8.526940|  2.4083e-05|    0.046440|
|        3470|  3.4049e+01|  3.4049e+01|   -8.530349|  2.3921e-05|    0.046418|
|        3480|  3.4049e+01|  3.4049e+01|   -8.533727|  2.3757e-05|    0.046397|
|        3490|  3.4049e+01|  3.4049e+01|   -8.537036|  2.3593e-05|    0.046375|
|        3500|  3.4049e+01|  3.4049e+01|   -8.540297|  2.3425e-05|    0.046354|
|        3510|  3.4049e+01|  3.4049e+01|   -8.543694|  2.3252e-05|    0.046333|
|        3520|  3.4049e+01|  3.4049e+01|   -8.547026|  2.3075e-05|    0.046313|
|        3530|  3.4049e+01|  3.4049e+01|   -8.550360|  2.2893e-05|    0.046292|
|        3540|  3.4049e+01|  3.4049e+01|   -8.553638|  2.2707e-05|    0.046272|
|        3550|  3.4049e+01|  3.4049e+01|   -8.556787|  2.2518e-05|    0.046252|
|        3560|  3.4049e+01|  3.4049e+01|   -8.559809|  2.2328e-05|    0.046232|
|        3570|  3.4049e+01|  3.4049e+01|   -8.562709|  2.2138e-05|    0.046213|
|        3580|  3.4049e+01|  3.4049e+01|   -8.565389|  2.1947e-05|    0.046193|
|        3590|  3.4049e+01|  3.4049e+01|   -8.568072|  2.1757e-05|    0.046173|
|        3600|  3.4049e+01|  3.4049e+01|   -8.570654|  2.1568e-05|    0.046154|
+-----------------------------------------------------------------------+
|        File Writing Summary       |              Filename             |
+-----------------------------------------------------------------------+
|SU2 binary restart                 |restart_flow_G1.dat                |
|Paraview                           |flow_G1.vtu                        |
|Paraview surface                   |surface_flow_G1.vtu                |
+-----------------------------------------------------------------------+
+-----------------------------------------------------------------------------+
|  Inner_Iter|     Min CFL|     Max CFL|      rms[P]|  Cauchy[CD]|          CD|
+-----------------------------------------------------------------------------+
|        3610|  3.4049e+01|  3.4049e+01|   -8.573160|  2.1380e-05|    0.046135|
|        3620|  3.4049e+01|  3.4049e+01|   -8.575531|  2.1195e-05|    0.046115|
|        3630|  3.4049e+01|  3.4049e+01|   -8.577846|  2.1012e-05|    0.046096|
|        3640|  3.4049e+01|  3.4049e+01|   -8.579969|  2.0833e-05|    0.046077|
|        3650|  3.4049e+01|  3.4049e+01|   -8.581958|  2.0657e-05|    0.046058|
|        3660|  3.4049e+01|  3.4049e+01|   -8.583954|  2.0486e-05|    0.046040|
|        3670|  3.4049e+01|  3.4049e+01|   -8.585959|  2.0318e-05|    0.046021|
|        3680|  3.4049e+01|  3.4049e+01|   -8.587906|  2.0155e-05|    0.046002|
|        3690|  3.4049e+01|  3.4049e+01|   -8.589832|  1.9999e-05|    0.045984|
|        3700|  3.4049e+01|  3.4049e+01|   -8.591695|  1.9848e-05|    0.045965|
|        3710|  3.4049e+01|  3.4049e+01|   -8.593662|  1.9703e-05|    0.045947|
|        3720|  3.4049e+01|  3.4049e+01|   -8.595668|  1.9563e-05|    0.045929|
|        3730|  3.4049e+01|  3.4049e+01|   -8.597743|  1.9427e-05|    0.045911|
|        3740|  3.4049e+01|  3.4049e+01|   -8.599933|  1.9296e-05|    0.045893|
|        3750|  3.4049e+01|  3.4049e+01|   -8.602312|  1.9170e-05|    0.045875|
|        3760|  3.4049e+01|  3.4049e+01|   -8.604881|  1.9047e-05|    0.045857|
|        3770|  3.4049e+01|  3.4049e+01|   -8.607631|  1.8928e-05|    0.045840|
|        3780|  3.4049e+01|  3.4049e+01|   -8.610519|  1.8812e-05|    0.045822|
|        3790|  3.4049e+01|  3.4049e+01|   -8.613577|  1.8700e-05|    0.045805|
|        3800|  3.4049e+01|  3.4049e+01|   -8.616996|  1.8590e-05|    0.045788|
+-----------------------------------------------------------------------+
|        File Writing Summary       |              Filename             |
+-----------------------------------------------------------------------+
|SU2 binary restart                 |restart_flow_G1.dat                |
|Paraview                           |flow_G1.vtu                        |
|Paraview surface                   |surface_flow_G1.vtu                |
+-----------------------------------------------------------------------+
+-----------------------------------------------------------------------------+
|  Inner_Iter|     Min CFL|     Max CFL|      rms[P]|  Cauchy[CD]|          CD|
+-----------------------------------------------------------------------------+
|        3810|  3.4049e+01|  3.4049e+01|   -8.620478|  1.8480e-05|    0.045770|
|        3820|  3.4049e+01|  3.4049e+01|   -8.624103|  1.8371e-05|    0.045753|
|        3830|  3.4049e+01|  3.4049e+01|   -8.627857|  1.8261e-05|    0.045736|
|        3840|  3.4049e+01|  3.4049e+01|   -8.631705|  1.8150e-05|    0.045720|
|        3850|  3.4049e+01|  3.4049e+01|   -8.635620|  1.8039e-05|    0.045703|
|        3860|  3.4049e+01|  3.4049e+01|   -8.639584|  1.7927e-05|    0.045687|
|        3870|  3.4049e+01|  3.4049e+01|   -8.643551|  1.7813e-05|    0.045670|
|        3880|  3.4049e+01|  3.4049e+01|   -8.647471|  1.7697e-05|    0.045654|
|        3890|  3.4049e+01|  3.4049e+01|   -8.651347|  1.7578e-05|    0.045638|
|        3900|  3.4049e+01|  3.4049e+01|   -8.655141|  1.7456e-05|    0.045622|
|        3910|  3.4049e+01|  3.4049e+01|   -8.658850|  1.7331e-05|    0.045606|
|        3920|  3.4049e+01|  3.4049e+01|   -8.662462|  1.7205e-05|    0.045591|
|        3930|  3.4049e+01|  3.4049e+01|   -8.665930|  1.7076e-05|    0.045575|
|        3940|  3.4049e+01|  3.4049e+01|   -8.669328|  1.6945e-05|    0.045560|
|        3950|  3.4049e+01|  3.4049e+01|   -8.672489|  1.6812e-05|    0.045545|
|        3960|  3.4049e+01|  3.4049e+01|   -8.675485|  1.6679e-05|    0.045530|
|        3970|  3.4049e+01|  3.4049e+01|   -8.678280|  1.6547e-05|    0.045515|
|        3980|  3.4049e+01|  3.4049e+01|   -8.680882|  1.6415e-05|    0.045501|
|        3990|  3.4049e+01|  3.4049e+01|   -8.683384|  1.6284e-05|    0.045486|
|        4000|  3.4049e+01|  3.4049e+01|   -8.685783|  1.6153e-05|    0.045471|
+-----------------------------------------------------------------------+
|        File Writing Summary       |              Filename             |
+-----------------------------------------------------------------------+
|SU2 binary restart                 |restart_flow_G1.dat                |
|Paraview                           |flow_G1.vtu                        |
|Paraview surface                   |surface_flow_G1.vtu                |
+-----------------------------------------------------------------------+
+-----------------------------------------------------------------------------+
|  Inner_Iter|     Min CFL|     Max CFL|      rms[P]|  Cauchy[CD]|          CD|
+-----------------------------------------------------------------------------+
|        4010|  3.4049e+01|  3.4049e+01|   -8.688174|  1.6025e-05|    0.045457|
|        4020|  3.4049e+01|  3.4049e+01|   -8.690562|  1.5897e-05|    0.045442|
|        4030|  3.4049e+01|  3.4049e+01|   -8.692936|  1.5771e-05|    0.045428|
|        4040|  3.4049e+01|  3.4049e+01|   -8.695295|  1.5646e-05|    0.045414|
|        4050|  3.4049e+01|  3.4049e+01|   -8.697724|  1.5522e-05|    0.045399|
|        4060|  3.4049e+01|  3.4049e+01|   -8.700436|  1.5399e-05|    0.045385|
|        4070|  3.4049e+01|  3.4049e+01|   -8.703130|  1.5277e-05|    0.045371|
|        4080|  3.4049e+01|  3.4049e+01|   -8.705793|  1.5157e-05|    0.045357|
|        4090|  3.4049e+01|  3.4049e+01|   -8.708392|  1.5038e-05|    0.045344|
|        4100|  3.4049e+01|  3.4049e+01|   -8.711056|  1.4921e-05|    0.045330|
|        4110|  3.4049e+01|  3.4049e+01|   -8.713730|  1.4806e-05|    0.045316|
|        4120|  3.4049e+01|  3.4049e+01|   -8.716458|  1.4693e-05|    0.045303|
|        4130|  3.4049e+01|  3.4049e+01|   -8.719265|  1.4582e-05|    0.045289|
|        4140|  3.4049e+01|  3.4049e+01|   -8.722151|  1.4472e-05|    0.045276|
|        4150|  3.4049e+01|  3.4049e+01|   -8.725044|  1.4365e-05|    0.045263|
|        4160|  3.4049e+01|  3.4049e+01|   -8.727926|  1.4260e-05|    0.045250|
|        4170|  3.4049e+01|  3.4049e+01|   -8.730840|  1.4158e-05|    0.045237|
|        4180|  3.4049e+01|  3.4049e+01|   -8.733824|  1.4060e-05|    0.045224|
|        4190|  3.4049e+01|  3.4049e+01|   -8.736868|  1.3966e-05|    0.045211|
|        4200|  3.4049e+01|  3.4049e+01|   -8.739954|  1.3872e-05|    0.045198|
+-----------------------------------------------------------------------+
|        File Writing Summary       |              Filename             |
+-----------------------------------------------------------------------+
|SU2 binary restart                 |restart_flow_G1.dat                |
|Paraview                           |flow_G1.vtu                        |
|Paraview surface                   |surface_flow_G1.vtu                |
+-----------------------------------------------------------------------+
+-----------------------------------------------------------------------------+
|  Inner_Iter|     Min CFL|     Max CFL|      rms[P]|  Cauchy[CD]|          CD|
+-----------------------------------------------------------------------------+
|        4210|  3.4049e+01|  3.4049e+01|   -8.743088|  1.3780e-05|    0.045186|
|        4220|  3.4049e+01|  3.4049e+01|   -8.746295|  1.3687e-05|    0.045173|
|        4230|  3.4049e+01|  3.4049e+01|   -8.749587|  1.3595e-05|    0.045161|
|        4240|  3.4049e+01|  3.4049e+01|   -8.752938|  1.3502e-05|    0.045148|
|        4250|  3.4049e+01|  3.4049e+01|   -8.756342|  1.3408e-05|    0.045136|
|        4260|  3.4049e+01|  3.4049e+01|   -8.759794|  1.3313e-05|    0.045124|
|        4270|  3.4049e+01|  3.4049e+01|   -8.763243|  1.3217e-05|    0.045112|
|        4280|  3.4049e+01|  3.4049e+01|   -8.766567|  1.3122e-05|    0.045100|
|        4290|  3.4049e+01|  3.4049e+01|   -8.769919|  1.3028e-05|    0.045088|
|        4300|  3.4049e+01|  3.4049e+01|   -8.773237|  1.2935e-05|    0.045076|
|        4310|  3.4049e+01|  3.4049e+01|   -8.776510|  1.2843e-05|    0.045064|
|        4320|  3.4049e+01|  3.4049e+01|   -8.779775|  1.2752e-05|    0.045053|
|        4330|  3.4049e+01|  3.4049e+01|   -8.783108|  1.2662e-05|    0.045041|
|        4340|  3.4049e+01|  3.4049e+01|   -8.786381|  1.2573e-05|    0.045029|
|        4350|  3.4049e+01|  3.4049e+01|   -8.789577|  1.2484e-05|    0.045018|
|        4360|  3.4049e+01|  3.4049e+01|   -8.792657|  1.2396e-05|    0.045006|
|        4370|  3.4049e+01|  3.4049e+01|   -8.795628|  1.2308e-05|    0.044995|
|        4380|  3.4049e+01|  3.4049e+01|   -8.798635|  1.2221e-05|    0.044984|
|        4390|  3.4049e+01|  3.4049e+01|   -8.801717|  1.2136e-05|    0.044973|
|        4400|  3.4049e+01|  3.4049e+01|   -8.804752|  1.2050e-05|    0.044962|
+-----------------------------------------------------------------------+
|        File Writing Summary       |              Filename             |
+-----------------------------------------------------------------------+
|SU2 binary restart                 |restart_flow_G1.dat                |
|Paraview                           |flow_G1.vtu                        |
|Paraview surface                   |surface_flow_G1.vtu                |
+-----------------------------------------------------------------------+
+-----------------------------------------------------------------------------+
|  Inner_Iter|     Min CFL|     Max CFL|      rms[P]|  Cauchy[CD]|          CD|
+-----------------------------------------------------------------------------+
|        4410|  3.4049e+01|  3.4049e+01|   -8.807696|  1.1964e-05|    0.044951|
|        4420|  3.4049e+01|  3.4049e+01|   -8.810599|  1.1879e-05|    0.044940|
|        4430|  3.4049e+01|  3.4049e+01|   -8.813463|  1.1794e-05|    0.044929|
|        4440|  3.4049e+01|  3.4049e+01|   -8.816347|  1.1710e-05|    0.044918|
|        4450|  3.4049e+01|  3.4049e+01|   -8.819217|  1.1626e-05|    0.044908|
|        4460|  3.4049e+01|  3.4049e+01|   -8.822155|  1.1542e-05|    0.044897|
|        4470|  3.4049e+01|  3.4049e+01|   -8.825164|  1.1460e-05|    0.044887|
|        4480|  3.4049e+01|  3.4049e+01|   -8.828236|  1.1377e-05|    0.044876|
|        4490|  3.4049e+01|  3.4049e+01|   -8.831308|  1.1296e-05|    0.044866|
|        4500|  3.4049e+01|  3.4049e+01|   -8.834468|  1.1215e-05|    0.044856|
|        4510|  3.4049e+01|  3.4049e+01|   -8.837722|  1.1135e-05|    0.044846|
|        4520|  3.4049e+01|  3.4049e+01|   -8.841105|  1.1055e-05|    0.044835|
|        4530|  3.4049e+01|  3.4049e+01|   -8.844556|  1.0974e-05|    0.044825|
|        4540|  3.4049e+01|  3.4049e+01|   -8.847953|  1.0893e-05|    0.044816|
|        4550|  3.4049e+01|  3.4049e+01|   -8.851336|  1.0812e-05|    0.044806|
|        4560|  3.4049e+01|  3.4049e+01|   -8.854744|  1.0731e-05|    0.044796|
|        4570|  3.4049e+01|  3.4049e+01|   -8.858153|  1.0649e-05|    0.044786|
|        4580|  3.4049e+01|  3.4049e+01|   -8.861590|  1.0567e-05|    0.044777|
|        4590|  3.4049e+01|  3.4049e+01|   -8.865069|  1.0484e-05|    0.044767|
|        4600|  3.4049e+01|  3.4049e+01|   -8.868553|  1.0400e-05|    0.044758|
+-----------------------------------------------------------------------+
|        File Writing Summary       |              Filename             |
+-----------------------------------------------------------------------+
|SU2 binary restart                 |restart_flow_G1.dat                |
|Paraview                           |flow_G1.vtu                        |
|Paraview surface                   |surface_flow_G1.vtu                |
+-----------------------------------------------------------------------+
+-----------------------------------------------------------------------------+
|  Inner_Iter|     Min CFL|     Max CFL|      rms[P]|  Cauchy[CD]|          CD|
+-----------------------------------------------------------------------------+
|        4610|  3.4049e+01|  3.4049e+01|   -8.871936|  1.0315e-05|    0.044749|
|        4620|  3.4049e+01|  3.4049e+01|   -8.875174|  1.0230e-05|    0.044739|
|        4630|  3.4049e+01|  3.4049e+01|   -8.878350|  1.0145e-05|    0.044730|
|        4640|  3.4049e+01|  3.4049e+01|   -8.881473|  1.0060e-05|    0.044721|
|        4650|  3.4049e+01|  3.4049e+01|   -8.884510|  9.9757e-06|    0.044712|
|        4660|  3.4049e+01|  3.4049e+01|   -8.887430|  9.8917e-06|    0.044703|
|        4670|  3.4049e+01|  3.4049e+01|   -8.890239|  9.8079e-06|    0.044695|
|        4680|  3.4049e+01|  3.4049e+01|   -8.892975|  9.7244e-06|    0.044686|
|        4690|  3.4049e+01|  3.4049e+01|   -8.895668|  9.6413e-06|    0.044677|
|        4700|  3.4049e+01|  3.4049e+01|   -8.898338|  9.5588e-06|    0.044669|
|        4710|  3.4049e+01|  3.4049e+01|   -8.900985|  9.4766e-06|    0.044660|
|        4720|  3.4049e+01|  3.4049e+01|   -8.903607|  9.3952e-06|    0.044652|
|        4730|  3.4049e+01|  3.4049e+01|   -8.906212|  9.3146e-06|    0.044643|
|        4740|  3.4049e+01|  3.4049e+01|   -8.908832|  9.2349e-06|    0.044635|
|        4750|  3.4049e+01|  3.4049e+01|   -8.911453|  9.1563e-06|    0.044627|
|        4760|  3.4049e+01|  3.4049e+01|   -8.914085|  9.0788e-06|    0.044619|
|        4770|  3.4049e+01|  3.4049e+01|   -8.916741|  9.0028e-06|    0.044610|
|        4780|  3.4049e+01|  3.4049e+01|   -8.919421|  8.9282e-06|    0.044602|
|        4790|  3.4049e+01|  3.4049e+01|   -8.922126|  8.8551e-06|    0.044594|
|        4800|  3.4049e+01|  3.4049e+01|   -8.924861|  8.7832e-06|    0.044586|
+-----------------------------------------------------------------------+
|        File Writing Summary       |              Filename             |
+-----------------------------------------------------------------------+
|SU2 binary restart                 |restart_flow_G1.dat                |
|Paraview                           |flow_G1.vtu                        |
|Paraview surface                   |surface_flow_G1.vtu                |
+-----------------------------------------------------------------------+
+-----------------------------------------------------------------------------+
|  Inner_Iter|     Min CFL|     Max CFL|      rms[P]|  Cauchy[CD]|          CD|
+-----------------------------------------------------------------------------+
|        4810|  3.4049e+01|  3.4049e+01|   -8.927632|  8.7127e-06|    0.044578|
|        4820|  3.4049e+01|  3.4049e+01|   -8.930420|  8.6437e-06|    0.044570|
|        4830|  3.4049e+01|  3.4049e+01|   -8.933233|  8.5764e-06|    0.044562|
|        4840|  3.4049e+01|  3.4049e+01|   -8.936076|  8.5109e-06|    0.044555|
|        4850|  3.4049e+01|  3.4049e+01|   -8.938946|  8.4473e-06|    0.044547|
|        4860|  3.4049e+01|  3.4049e+01|   -8.941845|  8.3858e-06|    0.044539|
|        4870|  3.4049e+01|  3.4049e+01|   -8.944774|  8.3264e-06|    0.044531|
|        4880|  3.4049e+01|  3.4049e+01|   -8.947722|  8.2687e-06|    0.044524|
|        4890|  3.4049e+01|  3.4049e+01|   -8.950696|  8.2124e-06|    0.044516|
|        4900|  3.4049e+01|  3.4049e+01|   -8.953712|  8.1578e-06|    0.044508|
|        4910|  3.4049e+01|  3.4049e+01|   -8.956758|  8.1044e-06|    0.044501|
|        4920|  3.4049e+01|  3.4049e+01|   -8.959851|  8.0520e-06|    0.044493|
|        4930|  3.4049e+01|  3.4049e+01|   -8.963000|  8.0004e-06|    0.044486|
|        4940|  3.4049e+01|  3.4049e+01|   -8.966206|  7.9496e-06|    0.044479|
|        4950|  3.4049e+01|  3.4049e+01|   -8.969475|  7.8995e-06|    0.044471|
|        4960|  3.4049e+01|  3.4049e+01|   -8.972810|  7.8500e-06|    0.044464|
|        4970|  3.4049e+01|  3.4049e+01|   -8.976199|  7.8009e-06|    0.044457|
|        4980|  3.4049e+01|  3.4049e+01|   -8.979677|  7.7524e-06|    0.044450|
|        4990|  3.4049e+01|  3.4049e+01|   -8.983190|  7.7041e-06|    0.044442|
|        5000|  3.4049e+01|  3.4049e+01|   -8.986832|  7.6562e-06|    0.044435|
+-----------------------------------------------------------------------+
|        File Writing Summary       |              Filename             |
+-----------------------------------------------------------------------+
|SU2 binary restart                 |restart_flow_G1.dat                |
|Paraview                           |flow_G1.vtu                        |
|Paraview surface                   |surface_flow_G1.vtu                |
+-----------------------------------------------------------------------+
+-----------------------------------------------------------------------------+
|  Inner_Iter|     Min CFL|     Max CFL|      rms[P]|  Cauchy[CD]|          CD|
+-----------------------------------------------------------------------------+
|        5010|  3.4049e+01|  3.4049e+01|   -8.990465|  7.6086e-06|    0.044428|
|        5020|  3.4049e+01|  3.4049e+01|   -8.994147|  7.5611e-06|    0.044421|
|        5030|  3.4049e+01|  3.4049e+01|   -8.997875|  7.5136e-06|    0.044414|
|        5040|  3.4049e+01|  3.4049e+01|   -9.001671|  7.4659e-06|    0.044408|
|        5050|  3.4049e+01|  3.4049e+01|   -9.005497|  7.4181e-06|    0.044401|
|        5060|  3.4049e+01|  3.4049e+01|   -9.009306|  7.3701e-06|    0.044394|
|        5070|  3.4049e+01|  3.4049e+01|   -9.013108|  7.3220e-06|    0.044387|
|        5080|  3.4049e+01|  3.4049e+01|   -9.016892|  7.2735e-06|    0.044381|
|        5090|  3.4049e+01|  3.4049e+01|   -9.020629|  7.2249e-06|    0.044374|
|        5100|  3.4049e+01|  3.4049e+01|   -9.024316|  7.1762e-06|    0.044367|
|        5110|  3.4049e+01|  3.4049e+01|   -9.027951|  7.1274e-06|    0.044361|
|        5120|  3.4049e+01|  3.4049e+01|   -9.031536|  7.0784e-06|    0.044354|
|        5130|  3.4049e+01|  3.4049e+01|   -9.035050|  7.0294e-06|    0.044348|
|        5140|  3.4049e+01|  3.4049e+01|   -9.038476|  6.9804e-06|    0.044341|
|        5150|  3.4049e+01|  3.4049e+01|   -9.041840|  6.9316e-06|    0.044335|
|        5160|  3.4049e+01|  3.4049e+01|   -9.045182|  6.8828e-06|    0.044329|
|        5170|  3.4049e+01|  3.4049e+01|   -9.048551|  6.8342e-06|    0.044322|
|        5180|  3.4049e+01|  3.4049e+01|   -9.051959|  6.7853e-06|    0.044316|
|        5190|  3.4049e+01|  3.4049e+01|   -9.055367|  6.7360e-06|    0.044310|
|        5200|  3.4049e+01|  3.4049e+01|   -9.058737|  6.6866e-06|    0.044304|
+-----------------------------------------------------------------------+
|        File Writing Summary       |              Filename             |
+-----------------------------------------------------------------------+
|SU2 binary restart                 |restart_flow_G1.dat                |
|Paraview                           |flow_G1.vtu                        |
|Paraview surface                   |surface_flow_G1.vtu                |
+-----------------------------------------------------------------------+
+-----------------------------------------------------------------------------+
|  Inner_Iter|     Min CFL|     Max CFL|      rms[P]|  Cauchy[CD]|          CD|
+-----------------------------------------------------------------------------+
|        5210|  3.4049e+01|  3.4049e+01|   -9.062056|  6.6372e-06|    0.044298|
|        5220|  3.4049e+01|  3.4049e+01|   -9.065319|  6.5878e-06|    0.044292|
|        5230|  3.4049e+01|  3.4049e+01|   -9.068545|  6.5386e-06|    0.044286|
|        5240|  3.4049e+01|  3.4049e+01|   -9.071755|  6.4894e-06|    0.044280|
|        5250|  3.4049e+01|  3.4049e+01|   -9.074988|  6.4403e-06|    0.044274|
|        5260|  3.4049e+01|  3.4049e+01|   -9.078293|  6.3912e-06|    0.044269|
|        5270|  3.4049e+01|  3.4049e+01|   -9.081678|  6.3422e-06|    0.044263|
|        5280|  3.4049e+01|  3.4049e+01|   -9.085089|  6.2935e-06|    0.044257|
|        5290|  3.4049e+01|  3.4049e+01|   -9.088589|  6.2449e-06|    0.044251|
|        5300|  3.4049e+01|  3.4049e+01|   -9.092028|  6.1966e-06|    0.044246|
|        5310|  3.4049e+01|  3.4049e+01|   -9.095506|  6.1482e-06|    0.044240|
|        5320|  3.4049e+01|  3.4049e+01|   -9.099019|  6.0998e-06|    0.044235|
|        5330|  3.4049e+01|  3.4049e+01|   -9.102518|  6.0515e-06|    0.044229|
|        5340|  3.4049e+01|  3.4049e+01|   -9.106003|  6.0031e-06|    0.044224|
|        5350|  3.4049e+01|  3.4049e+01|   -9.109467|  5.9547e-06|    0.044218|
|        5360|  3.4049e+01|  3.4049e+01|   -9.112895|  5.9063e-06|    0.044213|
|        5370|  3.4049e+01|  3.4049e+01|   -9.116281|  5.8579e-06|    0.044208|
|        5380|  3.4049e+01|  3.4049e+01|   -9.119609|  5.8095e-06|    0.044203|
|        5390|  3.4049e+01|  3.4049e+01|   -9.122871|  5.7613e-06|    0.044197|
|        5400|  3.4049e+01|  3.4049e+01|   -9.126086|  5.7131e-06|    0.044192|
+-----------------------------------------------------------------------+
|        File Writing Summary       |              Filename             |
+-----------------------------------------------------------------------+
|SU2 binary restart                 |restart_flow_G1.dat                |
|Paraview                           |flow_G1.vtu                        |
|Paraview surface                   |surface_flow_G1.vtu                |
+-----------------------------------------------------------------------+
+-----------------------------------------------------------------------------+
|  Inner_Iter|     Min CFL|     Max CFL|      rms[P]|  Cauchy[CD]|          CD|
+-----------------------------------------------------------------------------+
|        5410|  3.4049e+01|  3.4049e+01|   -9.129253|  5.6651e-06|    0.044187|
|        5420|  3.4049e+01|  3.4049e+01|   -9.132366|  5.6175e-06|    0.044182|
|        5430|  3.4049e+01|  3.4049e+01|   -9.135423|  5.5706e-06|    0.044177|
|        5440|  3.4049e+01|  3.4049e+01|   -9.138448|  5.5246e-06|    0.044172|
|        5450|  3.4049e+01|  3.4049e+01|   -9.141442|  5.4794e-06|    0.044167|
|        5460|  3.4049e+01|  3.4049e+01|   -9.144449|  5.4348e-06|    0.044162|
|        5470|  3.4049e+01|  3.4049e+01|   -9.147479|  5.3905e-06|    0.044157|
|        5480|  3.4049e+01|  3.4049e+01|   -9.150520|  5.3465e-06|    0.044152|
|        5490|  3.4049e+01|  3.4049e+01|   -9.153529|  5.3027e-06|    0.044148|
|        5500|  3.4049e+01|  3.4049e+01|   -9.156481|  5.2594e-06|    0.044143|
|        5510|  3.4049e+01|  3.4049e+01|   -9.159408|  5.2164e-06|    0.044138|
|        5520|  3.4049e+01|  3.4049e+01|   -9.162338|  5.1738e-06|    0.044133|
|        5530|  3.4049e+01|  3.4049e+01|   -9.165285|  5.1316e-06|    0.044129|
|        5540|  3.4049e+01|  3.4049e+01|   -9.168269|  5.0897e-06|    0.044124|
|        5550|  3.4049e+01|  3.4049e+01|   -9.171304|  5.0480e-06|    0.044120|
|        5560|  3.4049e+01|  3.4049e+01|   -9.174323|  5.0068e-06|    0.044115|
|        5570|  3.4049e+01|  3.4049e+01|   -9.177427|  4.9660e-06|    0.044111|
|        5580|  3.4049e+01|  3.4049e+01|   -9.180523|  4.9258e-06|    0.044106|
|        5590|  3.4049e+01|  3.4049e+01|   -9.183624|  4.8862e-06|    0.044102|
|        5600|  3.4049e+01|  3.4049e+01|   -9.186748|  4.8471e-06|    0.044097|
+-----------------------------------------------------------------------+
|        File Writing Summary       |              Filename             |
+-----------------------------------------------------------------------+
|SU2 binary restart                 |restart_flow_G1.dat                |
|Paraview                           |flow_G1.vtu                        |
|Paraview surface                   |surface_flow_G1.vtu                |
+-----------------------------------------------------------------------+
+-----------------------------------------------------------------------------+
|  Inner_Iter|     Min CFL|     Max CFL|      rms[P]|  Cauchy[CD]|          CD|
+-----------------------------------------------------------------------------+
|        5610|  3.4049e+01|  3.4049e+01|   -9.189885|  4.8086e-06|    0.044093|
|        5620|  3.4049e+01|  3.4049e+01|   -9.193032|  4.7707e-06|    0.044089|
|        5630|  3.4049e+01|  3.4049e+01|   -9.196173|  4.7332e-06|    0.044084|
|        5640|  3.4049e+01|  3.4049e+01|   -9.199322|  4.6962e-06|    0.044080|
|        5650|  3.4049e+01|  3.4049e+01|   -9.202481|  4.6595e-06|    0.044076|
|        5660|  3.4049e+01|  3.4049e+01|   -9.205653|  4.6231e-06|    0.044072|
|        5670|  3.4049e+01|  3.4049e+01|   -9.208823|  4.5871e-06|    0.044067|
|        5680|  3.4049e+01|  3.4049e+01|   -9.211983|  4.5513e-06|    0.044063|
|        5690|  3.4049e+01|  3.4049e+01|   -9.215157|  4.5159e-06|    0.044059|
|        5700|  3.4049e+01|  3.4049e+01|   -9.218323|  4.4807e-06|    0.044055|
|        5710|  3.4049e+01|  3.4049e+01|   -9.221471|  4.4457e-06|    0.044051|
|        5720|  3.4049e+01|  3.4049e+01|   -9.224615|  4.4112e-06|    0.044047|
|        5730|  3.4049e+01|  3.4049e+01|   -9.227768|  4.3771e-06|    0.044043|
[...]
|        6150|  3.4049e+01|  3.4049e+01|   -9.361099|  3.1710e-06|    0.043901|
|        6160|  3.4049e+01|  3.4049e+01|   -9.364392|  3.1486e-06|    0.043898|
|        6170|  3.4049e+01|  3.4049e+01|   -9.367714|  3.1265e-06|    0.043895|
|        6180|  3.4049e+01|  3.4049e+01|   -9.371068|  3.1046e-06|    0.043892|
|        6190|  3.4049e+01|  3.4049e+01|   -9.374458|  3.0829e-06|    0.043889|
|        6200|  3.4049e+01|  3.4049e+01|   -9.377883|  3.0613e-06|    0.043886|
+-----------------------------------------------------------------------+
|        File Writing Summary       |              Filename             |
+-----------------------------------------------------------------------+
|SU2 binary restart                 |restart_flow_G1.dat                |
|Paraview                           |flow_G1.vtu                        |
|Paraview surface                   |surface_flow_G1.vtu                |
+-----------------------------------------------------------------------+
+-----------------------------------------------------------------------------+
|  Inner_Iter|     Min CFL|     Max CFL|      rms[P]|  Cauchy[CD]|          CD|
+-----------------------------------------------------------------------------+
|        6210|  3.4049e+01|  3.4049e+01|   -9.381341|  3.0400e-06|    0.043883|
|        6220|  3.4049e+01|  3.4049e+01|   -9.384829|  3.0187e-06|    0.043881|
|        6230|  3.4049e+01|  3.4049e+01|   -9.388340|  2.9976e-06|    0.043878|
|        6240|  3.4049e+01|  3.4049e+01|   -9.391871|  2.9766e-06|    0.043875|
|        6250|  3.4049e+01|  3.4049e+01|   -9.395421|  2.9558e-06|    0.043872|
|        6260|  3.4049e+01|  3.4049e+01|   -9.398985|  2.9350e-06|    0.043870|
|        6270|  3.4049e+01|  3.4049e+01|   -9.402556|  2.9142e-06|    0.043867|
|        6280|  3.4049e+01|  3.4049e+01|   -9.406128|  2.8935e-06|    0.043864|
|        6290|  3.4049e+01|  3.4049e+01|   -9.409700|  2.8729e-06|    0.043862|
|        6300|  3.4049e+01|  3.4049e+01|   -9.413266|  2.8523e-06|    0.043859|
|        6310|  3.4049e+01|  3.4049e+01|   -9.416818|  2.8318e-06|    0.043857|
|        6320|  3.4049e+01|  3.4049e+01|   -9.420354|  2.8112e-06|    0.043854|
|        6330|  3.4049e+01|  3.4049e+01|   -9.423874|  2.7907e-06|    0.043852|
|        6340|  3.4049e+01|  3.4049e+01|   -9.427404|  2.7701e-06|    0.043849|
|        6350|  3.4049e+01|  3.4049e+01|   -9.430884|  2.7496e-06|    0.043847|
|        6360|  3.4049e+01|  3.4049e+01|   -9.434345|  2.7292e-06|    0.043844|
|        6370|  3.4049e+01|  3.4049e+01|   -9.437785|  2.7087e-06|    0.043842|
|        6380|  3.4049e+01|  3.4049e+01|   -9.441195|  2.6881e-06|    0.043839|
|        6390|  3.4049e+01|  3.4049e+01|   -9.444587|  2.6676e-06|    0.043837|
|        6400|  3.4049e+01|  3.4049e+01|   -9.447969|  2.6471e-06|    0.043834|
+-----------------------------------------------------------------------+
|        File Writing Summary       |              Filename             |
+-----------------------------------------------------------------------+
|SU2 binary restart                 |restart_flow_G1.dat                |
|Paraview                           |flow_G1.vtu                        |
|Paraview surface                   |surface_flow_G1.vtu                |
+-----------------------------------------------------------------------+
+-----------------------------------------------------------------------------+
|  Inner_Iter|     Min CFL|     Max CFL|      rms[P]|  Cauchy[CD]|          CD|
+-----------------------------------------------------------------------------+
|        6410|  3.4049e+01|  3.4049e+01|   -9.451330|  2.6265e-06|    0.043832|
|        6420|  3.4049e+01|  3.4049e+01|   -9.454674|  2.6060e-06|    0.043830|
|        6430|  3.4049e+01|  3.4049e+01|   -9.458004|  2.5855e-06|    0.043827|
|        6440|  3.4049e+01|  3.4049e+01|   -9.461323|  2.5650e-06|    0.043825|
|        6450|  3.4049e+01|  3.4049e+01|   -9.464627|  2.5445e-06|    0.043823|
|        6460|  3.4049e+01|  3.4049e+01|   -9.467911|  2.5241e-06|    0.043820|
|        6470|  3.4049e+01|  3.4049e+01|   -9.471189|  2.5037e-06|    0.043818|
|        6480|  3.4049e+01|  3.4049e+01|   -9.474464|  2.4834e-06|    0.043816|
|        6490|  3.4049e+01|  3.4049e+01|   -9.477732|  2.4631e-06|    0.043814|
|        6500|  3.4049e+01|  3.4049e+01|   -9.480990|  2.4429e-06|    0.043811|
|        6510|  3.4049e+01|  3.4049e+01|   -9.484236|  2.4228e-06|    0.043809|
|        6520|  3.4049e+01|  3.4049e+01|   -9.487474|  2.4027e-06|    0.043807|
|        6530|  3.4049e+01|  3.4049e+01|   -9.490701|  2.3827e-06|    0.043805|
|        6540|  3.4049e+01|  3.4049e+01|   -9.493912|  2.3628e-06|    0.043803|
|        6550|  3.4049e+01|  3.4049e+01|   -9.497108|  2.3430e-06|    0.043801|
|        6560|  3.4049e+01|  3.4049e+01|   -9.500291|  2.3234e-06|    0.043799|
|        6570|  3.4049e+01|  3.4049e+01|   -9.503457|  2.3039e-06|    0.043797|
|        6580|  3.4049e+01|  3.4049e+01|   -9.506605|  2.2845e-06|    0.043794|
|        6590|  3.4049e+01|  3.4049e+01|   -9.509742|  2.2653e-06|    0.043792|
|        6600|  3.4049e+01|  3.4049e+01|   -9.512863|  2.2463e-06|    0.043790|
+-----------------------------------------------------------------------+
|        File Writing Summary       |              Filename             |
+-----------------------------------------------------------------------+
|SU2 binary restart                 |restart_flow_G1.dat                |
|Paraview                           |flow_G1.vtu                        |
|Paraview surface                   |surface_flow_G1.vtu                |
+-----------------------------------------------------------------------+
+-----------------------------------------------------------------------------+
|  Inner_Iter|     Min CFL|     Max CFL|      rms[P]|  Cauchy[CD]|          CD|
+-----------------------------------------------------------------------------+
|        6610|  3.4049e+01|  3.4049e+01|   -9.515968|  2.2274e-06|    0.043788|
|        6620|  3.4049e+01|  3.4049e+01|   -9.519060|  2.2087e-06|    0.043786|
|        6630|  3.4049e+01|  3.4049e+01|   -9.522147|  2.1902e-06|    0.043784|
|        6640|  3.4049e+01|  3.4049e+01|   -9.525222|  2.1719e-06|    0.043782|
|        6650|  3.4049e+01|  3.4049e+01|   -9.528289|  2.1539e-06|    0.043780|
|        6660|  3.4049e+01|  3.4049e+01|   -9.531353|  2.1360e-06|    0.043779|
|        6670|  3.4049e+01|  3.4049e+01|   -9.534413|  2.1183e-06|    0.043777|
|        6680|  3.4049e+01|  3.4049e+01|   -9.537473|  2.1009e-06|    0.043775|
|        6690|  3.4049e+01|  3.4049e+01|   -9.540539|  2.0836e-06|    0.043773|
|        6700|  3.4049e+01|  3.4049e+01|   -9.543612|  2.0666e-06|    0.043771|
|        6710|  3.4049e+01|  3.4049e+01|   -9.546686|  2.0498e-06|    0.043769|
|        6720|  3.4049e+01|  3.4049e+01|   -9.549767|  2.0331e-06|    0.043767|
|        6730|  3.4049e+01|  3.4049e+01|   -9.552856|  2.0167e-06|    0.043765|
|        6740|  3.4049e+01|  3.4049e+01|   -9.555956|  2.0005e-06|    0.043764|
|        6750|  3.4049e+01|  3.4049e+01|   -9.559062|  1.9845e-06|    0.043762|
|        6760|  3.4049e+01|  3.4049e+01|   -9.562180|  1.9687e-06|    0.043760|
|        6770|  3.4049e+01|  3.4049e+01|   -9.565310|  1.9531e-06|    0.043758|
|        6780|  3.4049e+01|  3.4049e+01|   -9.568460|  1.9376e-06|    0.043756|
|        6790|  3.4049e+01|  3.4049e+01|   -9.571620|  1.9224e-06|    0.043755|
|        6800|  3.4049e+01|  3.4049e+01|   -9.574781|  1.9074e-06|    0.043753|
+-----------------------------------------------------------------------+
|        File Writing Summary       |              Filename             |
+-----------------------------------------------------------------------+
|SU2 binary restart                 |restart_flow_G1.dat                |
|Paraview                           |flow_G1.vtu                        |
|Paraview surface                   |surface_flow_G1.vtu                |
+-----------------------------------------------------------------------+
+-----------------------------------------------------------------------------+
|  Inner_Iter|     Min CFL|     Max CFL|      rms[P]|  Cauchy[CD]|          CD|
+-----------------------------------------------------------------------------+
|        6810|  3.4049e+01|  3.4049e+01|   -9.577955|  1.8926e-06|    0.043751|
|        6820|  3.4049e+01|  3.4049e+01|   -9.581138|  1.8780e-06|    0.043750|
|        6830|  3.4049e+01|  3.4049e+01|   -9.584328|  1.8636e-06|    0.043748|
|        6840|  3.4049e+01|  3.4049e+01|   -9.587533|  1.8493e-06|    0.043746|
|        6850|  3.4049e+01|  3.4049e+01|   -9.590750|  1.8352e-06|    0.043744|
|        6860|  3.4049e+01|  3.4049e+01|   -9.593976|  1.8213e-06|    0.043743|
|        6870|  3.4049e+01|  3.4049e+01|   -9.597213|  1.8075e-06|    0.043741|
|        6880|  3.4049e+01|  3.4049e+01|   -9.600464|  1.7939e-06|    0.043740|
|        6890|  3.4049e+01|  3.4049e+01|   -9.603729|  1.7805e-06|    0.043738|
|        6900|  3.4049e+01|  3.4049e+01|   -9.607004|  1.7672e-06|    0.043736|
|        6910|  3.4049e+01|  3.4049e+01|   -9.610289|  1.7540e-06|    0.043735|
|        6920|  3.4049e+01|  3.4049e+01|   -9.613691|  1.7410e-06|    0.043733|
|        6930|  3.4049e+01|  3.4049e+01|   -9.617016|  1.7281e-06|    0.043732|
|        6940|  3.4049e+01|  3.4049e+01|   -9.620355|  1.7153e-06|    0.043730|
|        6950|  3.4049e+01|  3.4049e+01|   -9.623691|  1.7026e-06|    0.043728|
|        6960|  3.4049e+01|  3.4049e+01|   -9.627020|  1.6901e-06|    0.043727|
|        6970|  3.4049e+01|  3.4049e+01|   -9.630357|  1.6777e-06|    0.043725|
|        6980|  3.4049e+01|  3.4049e+01|   -9.633705|  1.6653e-06|    0.043724|
|        6990|  3.4049e+01|  3.4049e+01|   -9.637061|  1.6531e-06|    0.043722|
|        7000|  3.4049e+01|  3.4049e+01|   -9.640491|  1.6411e-06|    0.043721|
+-----------------------------------------------------------------------+
|        File Writing Summary       |              Filename             |
+-----------------------------------------------------------------------+
|SU2 binary restart                 |restart_flow_G1.dat                |
|Paraview                           |flow_G1.vtu                        |
|Paraview surface                   |surface_flow_G1.vtu                |
+-----------------------------------------------------------------------+
+-----------------------------------------------------------------------------+
|  Inner_Iter|     Min CFL|     Max CFL|      rms[P]|  Cauchy[CD]|          CD|
+-----------------------------------------------------------------------------+
|        7010|  3.4049e+01|  3.4049e+01|   -9.643862|  1.6291e-06|    0.043719|
|        7020|  3.4049e+01|  3.4049e+01|   -9.647247|  1.6172e-06|    0.043718|
|        7030|  3.4049e+01|  3.4049e+01|   -9.650639|  1.6054e-06|    0.043716|
|        7040|  3.4049e+01|  3.4049e+01|   -9.654031|  1.5937e-06|    0.043715|
|        7050|  3.4049e+01|  3.4049e+01|   -9.657423|  1.5821e-06|    0.043713|
|        7060|  3.4049e+01|  3.4049e+01|   -9.660823|  1.5706e-06|    0.043712|
|        7070|  3.4049e+01|  3.4049e+01|   -9.664235|  1.5592e-06|    0.043711|
|        7080|  3.4049e+01|  3.4049e+01|   -9.667652|  1.5478e-06|    0.043709|
|        7090|  3.4049e+01|  3.4049e+01|   -9.671042|  1.5365e-06|    0.043708|
|        7100|  3.4049e+01|  3.4049e+01|   -9.674464|  1.5253e-06|    0.043706|
|        7110|  3.4049e+01|  3.4049e+01|   -9.677897|  1.5141e-06|    0.043705|
|        7120|  3.4049e+01|  3.4049e+01|   -9.681340|  1.5029e-06|    0.043704|
|        7130|  3.4049e+01|  3.4049e+01|   -9.684787|  1.4919e-06|    0.043702|
|        7140|  3.4049e+01|  3.4049e+01|   -9.688233|  1.4809e-06|    0.043701|
|        7150|  3.4049e+01|  3.4049e+01|   -9.691683|  1.4699e-06|    0.043700|
|        7160|  3.4049e+01|  3.4049e+01|   -9.695134|  1.4590e-06|    0.043698|
|        7170|  3.4049e+01|  3.4049e+01|   -9.698585|  1.4482e-06|    0.043697|
|        7180|  3.4049e+01|  3.4049e+01|   -9.702036|  1.4375e-06|    0.043696|
|        7190|  3.4049e+01|  3.4049e+01|   -9.705489|  1.4267e-06|    0.043694|
|        7200|  3.4049e+01|  3.4049e+01|   -9.708940|  1.4161e-06|    0.043693|
+-----------------------------------------------------------------------+
|        File Writing Summary       |              Filename             |
+-----------------------------------------------------------------------+
|SU2 binary restart                 |restart_flow_G1.dat                |
|Paraview                           |flow_G1.vtu                        |
|Paraview surface                   |surface_flow_G1.vtu                |
+-----------------------------------------------------------------------+
+-----------------------------------------------------------------------------+
|  Inner_Iter|     Min CFL|     Max CFL|      rms[P]|  Cauchy[CD]|          CD|
+-----------------------------------------------------------------------------+
|        7210|  3.4049e+01|  3.4049e+01|   -9.712387|  1.4056e-06|    0.043692|
|        7220|  3.4049e+01|  3.4049e+01|   -9.715831|  1.3950e-06|    0.043690|
|        7230|  3.4049e+01|  3.4049e+01|   -9.719271|  1.3846e-06|    0.043689|
|        7240|  3.4049e+01|  3.4049e+01|   -9.722704|  1.3742e-06|    0.043688|
|        7250|  3.4049e+01|  3.4049e+01|   -9.726135|  1.3639e-06|    0.043687|
|        7260|  3.4049e+01|  3.4049e+01|   -9.729563|  1.3537e-06|    0.043685|
|        7270|  3.4049e+01|  3.4049e+01|   -9.732985|  1.3435e-06|    0.043684|
|        7280|  3.4049e+01|  3.4049e+01|   -9.736402|  1.3334e-06|    0.043683|
|        7290|  3.4049e+01|  3.4049e+01|   -9.739815|  1.3233e-06|    0.043682|
|        7300|  3.4049e+01|  3.4049e+01|   -9.743224|  1.3134e-06|    0.043681|
|        7310|  3.4049e+01|  3.4049e+01|   -9.746631|  1.3034e-06|    0.043679|
|        7320|  3.4049e+01|  3.4049e+01|   -9.750033|  1.2936e-06|    0.043678|
|        7330|  3.4049e+01|  3.4049e+01|   -9.753432|  1.2838e-06|    0.043677|
|        7340|  3.4049e+01|  3.4049e+01|   -9.756830|  1.2741e-06|    0.043676|
|        7350|  3.4049e+01|  3.4049e+01|   -9.760228|  1.2645e-06|    0.043675|
|        7360|  3.4049e+01|  3.4049e+01|   -9.763630|  1.2550e-06|    0.043674|
|        7370|  3.4049e+01|  3.4049e+01|   -9.767034|  1.2455e-06|    0.043672|
|        7380|  3.4049e+01|  3.4049e+01|   -9.770438|  1.2361e-06|    0.043671|
|        7390|  3.4049e+01|  3.4049e+01|   -9.773842|  1.2268e-06|    0.043670|
|        7400|  3.4049e+01|  3.4049e+01|   -9.777250|  1.2175e-06|    0.043669|
+-----------------------------------------------------------------------+
|        File Writing Summary       |              Filename             |
+-----------------------------------------------------------------------+
|SU2 binary restart                 |restart_flow_G1.dat                |
|Paraview                           |flow_G1.vtu                        |
|Paraview surface                   |surface_flow_G1.vtu                |
+-----------------------------------------------------------------------+
+-----------------------------------------------------------------------------+
|  Inner_Iter|     Min CFL|     Max CFL|      rms[P]|  Cauchy[CD]|          CD|
+-----------------------------------------------------------------------------+
|        7410|  3.4049e+01|  3.4049e+01|   -9.780665|  1.2083e-06|    0.043668|
|        7420|  3.4049e+01|  3.4049e+01|   -9.784082|  1.1992e-06|    0.043667|
|        7430|  3.4049e+01|  3.4049e+01|   -9.787502|  1.1901e-06|    0.043666|
|        7440|  3.4049e+01|  3.4049e+01|   -9.790927|  1.1811e-06|    0.043665|
|        7450|  3.4049e+01|  3.4049e+01|   -9.794358|  1.1722e-06|    0.043664|
|        7460|  3.4049e+01|  3.4049e+01|   -9.797792|  1.1634e-06|    0.043663|
|        7470|  3.4049e+01|  3.4049e+01|   -9.801232|  1.1546e-06|    0.043662|
|        7480|  3.4049e+01|  3.4049e+01|   -9.804676|  1.1458e-06|    0.043661|
|        7490|  3.4049e+01|  3.4049e+01|   -9.808123|  1.1372e-06|    0.043659|
|        7500|  3.4049e+01|  3.4049e+01|   -9.811570|  1.1286e-06|    0.043658|
|        7510|  3.4049e+01|  3.4049e+01|   -9.815019|  1.1201e-06|    0.043657|
|        7520|  3.4049e+01|  3.4049e+01|   -9.818470|  1.1116e-06|    0.043656|
|        7530|  3.4049e+01|  3.4049e+01|   -9.821915|  1.1032e-06|    0.043655|
|        7540|  3.4049e+01|  3.4049e+01|   -9.825344|  1.0949e-06|    0.043654|
|        7550|  3.4049e+01|  3.4049e+01|   -9.828770|  1.0866e-06|    0.043653|
|        7560|  3.4049e+01|  3.4049e+01|   -9.832210|  1.0784e-06|    0.043652|
|        7570|  3.4049e+01|  3.4049e+01|   -9.835664|  1.0702e-06|    0.043651|
|        7580|  3.4049e+01|  3.4049e+01|   -9.839117|  1.0621e-06|    0.043651|
|        7590|  3.4049e+01|  3.4049e+01|   -9.842557|  1.0541e-06|    0.043650|
|        7600|  3.4049e+01|  3.4049e+01|   -9.845989|  1.0461e-06|    0.043649|
+-----------------------------------------------------------------------+
|        File Writing Summary       |              Filename             |
+-----------------------------------------------------------------------+
|SU2 binary restart                 |restart_flow_G1.dat                |
|Paraview                           |flow_G1.vtu                        |
|Paraview surface                   |surface_flow_G1.vtu                |
+-----------------------------------------------------------------------+
+-----------------------------------------------------------------------------+
|  Inner_Iter|     Min CFL|     Max CFL|      rms[P]|  Cauchy[CD]|          CD|
+-----------------------------------------------------------------------------+
|        7610|  3.4049e+01|  3.4049e+01|   -9.849423|  1.0381e-06|    0.043648|
|        7620|  3.4049e+01|  3.4049e+01|   -9.852856|  1.0303e-06|    0.043647|
|        7630|  3.4049e+01|  3.4049e+01|   -9.856287|  1.0225e-06|    0.043646|
|        7640|  3.4049e+01|  3.4049e+01|   -9.859717|  1.0147e-06|    0.043645|
|        7650|  3.4049e+01|  3.4049e+01|   -9.863146|  1.0070e-06|    0.043644|
|        7660|  3.4049e+01|  3.4049e+01|   -9.866573|  9.9936e-07|    0.043643|

----------------------------- Solver Exit -------------------------------
All convergence criteria satisfied.
+-----------------------------------------------------------------------+
|      Convergence Field     |     Value    |   Criterion  |  Converged |
+-----------------------------------------------------------------------+
|                      rms[P]|      -9.86657|          < -9|         Yes|
|                  Cauchy[CD]|   9.99364e-07|       < 1e-06|         Yes|
+-----------------------------------------------------------------------+
-------------------------------------------------------------------------
+-----------------------------------------------------------------------+
|        File Writing Summary       |              Filename             |
+-----------------------------------------------------------------------+
|SU2 binary restart                 |restart_flow_G1.dat                |
|Paraview                           |flow_G1.vtu                        |
|Paraview surface                   |surface_flow_G1.vtu                |
+-----------------------------------------------------------------------+

------------------------- Solver Postprocessing -------------------------
Deleted CNumerics container.
Deleted CIntegration container.
Deleted CSolver container.
Deleted CIteration container.
Deleted CInterface container.
Deleted CGeometry container.
Deleted CFreeFormDefBox class.
Deleted CSurfaceMovement class.
Deleted CVolumetricMovement class.
Deleted CConfig container.
Deleted nInst container.
Deleted COutput class.
-------------------------------------------------------------------------

------------------------- Exit Success (SU2_CFD) ------------------------

