
-------------------------------------------------------------------------
|    ___ _   _ ___                                                      |
|   / __| | | |_  )   Release 7.4.0 "Blackbird"                         |
|   \__ \ |_| |/ /                                                      |
|   |___/\___//___|   Suite (Computational Fluid Dynamics Code)         |
|                                                                       |
-------------------------------------------------------------------------
| SU2 Project Website: https://su2code.github.io                        |
|                                                                       |
| The SU2 Project is maintained by the SU2 Foundation                   |
| (http://su2foundation.org)                                            |
-------------------------------------------------------------------------
| Copyright 2012-2022, SU2 Contributors                                 |
|                                                                       |
| SU2 is free software; you can redistribute it and/or                  |
| modify it under the terms of the GNU Lesser General Public            |
| License as published by the Free Software Foundation; either          |
| version 2.1 of the License, or (at your option) any later version.    |
|                                                                       |
| SU2 is distributed in the hope that it will be useful,                |
| but WITHOUT ANY WARRANTY; without even the implied warranty of        |
| MERCHANTABILITY or FITNESS FOR A PARTICULAR PURPOSE. See the GNU      |
| Lesser General Public License for more details.                       |
|                                                                       |
| You should have received a copy of the GNU Lesser General Public      |
| License along with SU2. If not, see <http://www.gnu.org/licenses/>.   |
-------------------------------------------------------------------------

Parsing config file for zone 0

----------------- Physical Case Definition ( Zone 0 ) -------------------
Incompressible RANS equations.
Turbulence model: Spalart-Allmaras-noft2
Hybrid RANS/LES: No Hybrid RANS/LES
No restart solution, use the values at infinity (freestream).
Non-Dimensional simulation using intialization values.
The reference area is 1 m^2.
The semi-span will be computed using the max y(3D) value.
The reference length is 1.00898 m.
Reference origin for moment evaluation is (-0.756, 0, 0).
Surface(s) where the force coefficients are evaluated: AIRFOIL.

Surface(s) plotted in the output file: AIRFOIL.
Input mesh file name: ../meshG6/meshG6.su2

--------------- Space Numerical Integration ( Zone 0 ) ------------------
Flux difference splitting (FDS) upwind scheme for the flow inviscid terms.
First order integration in space.
Average of gradients with correction (viscous flow terms).
Average of gradients with correction (viscous turbulence terms).
Gradient for upwind reconstruction: unweighted Least-Squares.
Gradient for viscous and source terms: Green-Gauss.

--------------- Time Numerical Integration  ( Zone 0 ) ------------------
Local time stepping (steady state simulation).
Euler implicit method for the flow equations.
FGMRES is used for solving the linear system.
Using a ILU(0) preconditioning.
Convergence criteria of the linear solver: 1e-06.
Max number of linear iterations: 10.
CFL adaptation. Factor down: 0.1, factor up: 1.2,
                lower limit: 1, upper limit: 1000,
                acceptable linear residual: 0.001.
Courant-Friedrichs-Lewy number:        2
Euler implicit time integration for the turbulence model.

------------------ Convergence Criteria  ( Zone 0 ) ---------------------
Maximum number of solver subiterations: 9999.
Begin convergence monitoring at iteration 10.
Residual minimum value: 1e-9.
Cauchy series min. value: 1e-06.
Number of Cauchy elements: 250.
Begin windowed time average at iteration 0.

-------------------- Output Information ( Zone 0 ) ----------------------
File writing frequency: 
+------------------------------------+
|                     File| Frequency|
+------------------------------------+
|                  RESTART|       200|
|                 PARAVIEW|       200|
|         SURFACE_PARAVIEW|       200|
+------------------------------------+
Writing the convergence history file every 1 inner iterations.
Writing the screen convergence history every 10 inner iterations.
The tabular file format is CSV (.csv).
Convergence history file name: history_G6.
Forces breakdown file name: forces_breakdown.dat.
Surface file name: surface_flow_G6.
Volume file name: flow_G6.
Restart file name: restart_flow_G6.dat.

------------- Config File Boundary Information ( Zone 0 ) ---------------
+-----------------------------------------------------------------------+
|                        Marker Type|                        Marker Name|
+-----------------------------------------------------------------------+
|                          Far-field|                           FARFIELD|
+-----------------------------------------------------------------------+
|                     Heat flux wall|                            AIRFOIL|
+-----------------------------------------------------------------------+

-------------------- Output Preprocessing ( Zone 0 ) --------------------

WARNING: SURFACE_PRESSURE_DROP can only be computed for at least 2 surfaces (outlet, inlet, ...)

Screen output fields: INNER_ITER, MIN_CFL, MAX_CFL, RMS_PRESSURE, CAUCHY_DRAG, DRAG
History output group(s): INNER_ITER, MIN_CFL, MAX_CFL, RMS_RES, LIFT, DRAG, MOMENT_Z, CAUCHY
Convergence field(s): RMS_PRESSURE, DRAG
Warning: No (valid) fields chosen for time convergence monitoring. Time convergence monitoring inactive.
Volume output fields: COORDINATES, SOLUTION, PRIMITIVE, RESIDUAL, MESH_QUALITY

------------------- Geometry Preprocessing ( Zone 0 ) -------------------
Two dimensional problem.
287404 grid points before partitioning.
286116 volume elements before partitioning.
2 surface markers.
798 boundary elements in index 0 (Marker = AIRFOIL).
1778 boundary elements in index 1 (Marker = FARFIELD).
Executing the partitioning functions.
Building the graph adjacency structure.
Calling ParMETIS... graph partitioning complete (2045 edge cuts).
Distributing ParMETIS coloring.
Rebalancing vertices.
Rebalancing volume element connectivity.
Rebalancing markers and surface elements.
291499 vertices including ghost points. 
288158 interior elements including halo cells. 
288158 quadrilaterals.
Establishing MPI communication patterns.
Setting point connectivity.
Renumbering points (Reverse Cuthill McKee Ordering).
Recomputing point connectivity.
Setting element connectivity.
Checking the numerical grid orientation.
All volume elements are correctly orientend.
There has been a re-orientation of 1292 LINE surface elements.
Identifying edges and vertices.
Setting the control volume structure.
Area of the computational grid: 3239.53.
Searching for the closest normal neighbors to the surfaces.
Storing a mapping from global to local point index.
Compute the surface curvature.
Max K: 6629.39. Mean K: 3.88441. Standard deviation K: 130.885.
Checking for periodicity.
Computing mesh quality statistics for the dual control volumes.
+--------------------------------------------------------------+
|           Mesh Quality Metric|        Minimum|        Maximum|
+--------------------------------------------------------------+
|    Orthogonality Angle (deg.)|        72.4128|             90|
|     CV Face Area Aspect Ratio|        1.00005|         125630|
|           CV Sub-Volume Ratio|              1|        15.2167|
+--------------------------------------------------------------+
Finding max control volume width.
Communicating number of neighbors.
Wetted area = 2.05977 m.
Area projection in the x-plane = 0.121115 m, y-plane = 1.00885 m.
Max. coordinate in the x-direction = 1.00898 m, y-direction = 0.0759841 m.
Min. coordinate in the x-direction = 1.77353e-06 m, y-direction = -0.0451351 m.
Computing wall distances.

-------------------- Solver Preprocessing ( Zone 0 ) --------------------
Incompressible flow: rho_ref, vel_ref, and temp_ref
are based on the initial values, p_ref = rho_ref*vel_ref^2.
Force coefficients computed using initial values.
The reference area for force coeffs. is 1 m^2.
The reference length for force coeffs. is 1.00898 m.
The pressure is decomposed into thermodynamic and dynamic components.
The initial value of the dynamic pressure is 0.
Mach number: 0.0276748, computed using the Bulk modulus.
For external flows, the initial state is imposed at the far-field.
Angle of attack (deg): 17.9997, computed using the initial velocity.
Side slip angle (deg): 0, computed using the initial velocity.
Reynolds number per meter: 595002, computed using initial values.
Reynolds number is a byproduct of inputs only (not used internally).
SI units only. The grid should be dimensional (meters).
No energy equation.

-- Models:
+------------------------------------------------------------------------------+
|          Viscosity Model|        Conductivity Model|              Fluid Model|
+------------------------------------------------------------------------------+
|       CONSTANT_VISCOSITY|          CONSTANT_PRANDTL|         CONSTANT_DENSITY|
+------------------------------------------------------------------------------+
-- Fluid properties:
+------------------------------------------------------------------------------+
|                  Name|    Dim. value|    Ref. value|      Unit|Non-dim. value|
+------------------------------------------------------------------------------+
|             Viscosity|      1.92e-05|        11.424|   N.s/m^2|   1.68067e-06|
+------------------------------------------------------------------------------+
|        Prandtl (Lam.)|             -|             -|         -|          0.72|
|       Prandtl (Turb.)|             -|             -|         -|           0.9|
+------------------------------------------------------------------------------+
|          Bulk Modulus|        142000|             1|        Pa|        142000|
+------------------------------------------------------------------------------+
-- Initial and free-stream conditions:
+------------------------------------------------------------------------------+
|                  Name|    Dim. value|    Ref. value|      Unit|Non-dim. value|
+------------------------------------------------------------------------------+
|      Dynamic Pressure|             0|       108.757|        Pa|             0|
|        Total Pressure|       54.3785|       108.757|        Pa|           0.5|
|               Density|           1.2|           1.2|    kg/m^3|             1|
|            Velocity-X|        9.0541|       9.52003|       m/s|      0.951058|
|            Velocity-Y|        2.9418|       9.52003|       m/s|      0.309012|
|    Velocity Magnitude|       9.52003|       9.52003|       m/s|             1|
+------------------------------------------------------------------------------+
|             Viscosity|      1.92e-05|        11.424|   N.s/m^2|   1.68067e-06|
|          Conductivity|             -|       3.59317|   W/m^2.K|             -|
|     Turb. Kin. Energy|       1.35946|       90.6309|   m^2/s^2|         0.015|
|     Spec. Dissipation|       8496.65|       9.52003|       1/s|       892.503|
+------------------------------------------------------------------------------+
|           Mach Number|             -|             -|         -|     0.0276748|
|       Reynolds Number|             -|             -|         -|        595002|
+------------------------------------------------------------------------------+
Initialize Jacobian structure (Navier-Stokes). MG level: 0.
Initialize Jacobian structure (SA model).

------------------- Numerics Preprocessing ( Zone 0 ) -------------------

----------------- Integration Preprocessing ( Zone 0 ) ------------------

------------------- Iteration Preprocessing ( Zone 0 ) ------------------
Euler/Navier-Stokes/RANS fluid iteration.

------------------------------ Begin Solver -----------------------------

Simulation Run using the Single-zone Driver
+-----------------------------------------------------------------------------+
|  Inner_Iter|     Min CFL|     Max CFL|      rms[P]|  Cauchy[CD]|          CD|
+-----------------------------------------------------------------------------+
|           0|  2.4000e+00|  2.4000e+00|   -4.271817|  1.0000e+00|    1.112645|
|          10|  1.4860e+01|  1.4860e+01|   -5.002272|  8.0466e-04|    1.245578|
|          20|  7.6675e+00|  7.6675e+00|   -5.183710|  8.5199e-04|    1.232310|
|          30|  4.7475e+01|  4.7475e+01|   -5.088142|  1.0522e-03|    1.172464|
|          40|  2.4496e+01|  2.4496e+01|   -5.050697|  1.4441e-03|    1.063796|
|          50|  5.0795e+01|  5.0795e+01|   -5.064392|  3.3343e-03|    0.671044|
|          60|  5.0795e+01|  5.0795e+01|   -5.182007|  7.3047e-03|    0.260685|
|          70|  2.1841e+01|  2.1841e+01|   -5.193455|  8.9188e-03|    0.176585|
|          80|  1.1270e+01|  1.1270e+01|   -5.204996|  1.0797e-02|    0.112088|
|          90|  5.8148e+00|  5.8148e+00|   -5.221768|  1.3106e-02|    0.053869|
|         100|  3.6004e+01|  3.6004e+01|   -5.218735|  1.4425e-02|    0.020891|
|         110|  1.8577e+01|  1.8577e+01|   -5.214877|  1.6486e-02|   -0.030645|
|         120|  9.5854e+00|  9.5854e+00|   -5.243395|  1.7535e-02|   -0.038939|
|         130|  5.9350e+01|  5.9350e+01|   -5.248375|  2.0211e-02|    0.027947|
|         140|  3.0623e+01|  3.0623e+01|   -5.251685|  2.3696e-02|    0.117548|
|         150|  1.5801e+01|  1.5801e+01|   -5.275871|  2.6956e-02|    0.281260|
|         160|  8.1530e+00|  8.1530e+00|   -5.262047|  2.8607e-02|    0.429112|
|         170|  5.0481e+01|  5.0481e+01|   -5.246903|  2.8846e-02|    0.455227|
|         180|  2.6047e+01|  2.6047e+01|   -5.248926|  2.9151e-02|    0.421929|
|         190|  1.3440e+01|  1.3440e+01|   -5.270275|  3.0338e-02|    0.315701|
|         200|  6.9346e+00|  6.9346e+00|   -5.312379|  3.2293e-02|    0.196450|
+-----------------------------------------------------------------------+
|        File Writing Summary       |              Filename             |
+-----------------------------------------------------------------------+
|SU2 binary restart                 |restart_flow_G6.dat                |
|Paraview                           |flow_G6.vtu                        |
|Paraview surface                   |surface_flow_G6.vtu                |
+-----------------------------------------------------------------------+
+-----------------------------------------------------------------------------+
|  Inner_Iter|     Min CFL|     Max CFL|      rms[P]|  Cauchy[CD]|          CD|
+-----------------------------------------------------------------------------+
|         210|  4.2937e+01|  4.2937e+01|   -5.344703|  3.3016e-02|    0.164244|
|         220|  6.1830e+01|  6.1830e+01|   -5.351086|  3.3988e-02|    0.193757|
|         230|  3.1903e+01|  3.1903e+01|   -5.338227|  3.4473e-02|    0.219081|
|         240|  6.6154e+01|  6.6154e+01|   -5.410143|  3.4791e-02|    0.237316|
|         250|  1.9753e+01|  1.9753e+01|   -5.492398|  3.4913e-02|    0.244643|
|         260|  1.0192e+01|  1.0192e+01|   -5.491002|  3.4312e-02|    0.257499|
|         270|  6.3108e+01|  6.3108e+01|   -5.472527|  3.4345e-02|    0.262702|
|         280|  3.2562e+01|  3.2562e+01|   -5.479539|  3.4245e-02|    0.256209|
|         290|  6.7521e+01|  6.7521e+01|   -5.606451|  3.4482e-02|    0.219235|
|         300|  6.7521e+01|  6.7521e+01|   -5.719508|  3.2887e-02|    0.216488|
|         310|  6.7521e+01|  6.7521e+01|   -5.760155|  2.9407e-02|    0.244896|
|         320|  6.7521e+01|  6.7521e+01|   -6.061654|  2.7980e-02|    0.243128|
|         330|  6.7521e+01|  6.7521e+01|   -6.070932|  2.6691e-02|    0.210054|
|         340|  6.7521e+01|  6.7521e+01|   -6.274921|  2.4682e-02|    0.195548|
|         350|  6.7521e+01|  6.7521e+01|   -6.255085|  2.3710e-02|    0.213407|
|         360|  2.4194e+01|  2.4194e+01|   -6.231904|  2.1882e-02|    0.226261|
|         370|  7.2243e+00|  7.2243e+00|   -6.386870|  2.1002e-02|    0.236109|
|         380|  4.4731e+01|  4.4731e+01|   -6.463065|  1.8337e-02|    0.235932|
|         390|  2.3080e+01|  2.3080e+01|   -6.445854|  1.4935e-02|    0.231089|
|         400|  1.1909e+01|  1.1909e+01|   -6.416745|  1.1827e-02|    0.222467|
+-----------------------------------------------------------------------+
|        File Writing Summary       |              Filename             |
+-----------------------------------------------------------------------+
|SU2 binary restart                 |restart_flow_G6.dat                |
|Paraview                           |flow_G6.vtu                        |
|Paraview surface                   |surface_flow_G6.vtu                |
+-----------------------------------------------------------------------+
+-----------------------------------------------------------------------------+
|  Inner_Iter|     Min CFL|     Max CFL|      rms[P]|  Cauchy[CD]|          CD|
+-----------------------------------------------------------------------------+
|         410|  7.3737e+01|  7.3737e+01|   -6.463889|  1.0341e-02|    0.213557|
|         420|  3.8047e+01|  3.8047e+01|   -6.576753|  1.0202e-02|    0.208264|
|         430|  1.9631e+01|  1.9631e+01|   -6.657439|  9.9707e-03|    0.204449|
|         440|  8.4411e+00|  8.4411e+00|   -6.529011|  8.8615e-03|    0.208176|
|         450|  5.2265e+01|  5.2265e+01|   -6.509528|  6.9830e-03|    0.212191|
|         460|  7.5261e+00|  7.5261e+00|   -6.640411|  6.4700e-03|    0.223683|
|         470|  4.6600e+01|  4.6600e+01|   -6.607000|  5.5167e-03|    0.224699|
|         480|  2.4045e+01|  2.4045e+01|   -6.530758|  5.0498e-03|    0.223768|
|         490|  1.2406e+01|  1.2406e+01|   -6.520472|  4.7903e-03|    0.220503|
|         500|  7.6817e+01|  7.6817e+01|   -6.552797|  4.7432e-03|    0.216457|
|         510|  3.9636e+01|  3.9636e+01|   -6.594261|  4.5932e-03|    0.213548|
|         520|  8.2189e+00|  8.2189e+00|   -6.631855|  4.6083e-03|    0.208539|
|         530|  5.0890e+01|  5.0890e+01|   -6.673758|  4.5180e-03|    0.208022|
|         540|  2.6258e+01|  2.6258e+01|   -6.770503|  3.8944e-03|    0.208261|
|         550|  1.3548e+01|  1.3548e+01|   -6.915717|  3.6220e-03|    0.209481|
|         560|  6.9907e+01|  6.9907e+01|   -6.940587|  3.1553e-03|    0.210711|
|         570|  6.9907e+01|  6.9907e+01|   -6.964437|  2.9862e-03|    0.210701|
|         580|  6.9907e+01|  6.9907e+01|   -6.957058|  2.4453e-03|    0.208168|
|         590|  1.2080e+01|  1.2080e+01|   -6.898856|  2.1875e-03|    0.206022|
|         600|  7.4796e+01|  7.4796e+01|   -6.902855|  1.8566e-03|    0.205144|
+-----------------------------------------------------------------------+
|        File Writing Summary       |              Filename             |
+-----------------------------------------------------------------------+
|SU2 binary restart                 |restart_flow_G6.dat                |
|Paraview                           |flow_G6.vtu                        |
|Paraview surface                   |surface_flow_G6.vtu                |
+-----------------------------------------------------------------------+
+-----------------------------------------------------------------------------+
|  Inner_Iter|     Min CFL|     Max CFL|      rms[P]|  Cauchy[CD]|          CD|
+-----------------------------------------------------------------------------+
|         610|  7.4796e+01|  7.4796e+01|   -6.949133|  1.6493e-03|    0.203842|
|         620|  7.4796e+01|  7.4796e+01|   -7.053803|  1.4859e-03|    0.203504|
|         630|  1.2925e+01|  1.2925e+01|   -7.113377|  1.4768e-03|    0.203524|
|         640|  8.0027e+01|  8.0027e+01|   -7.107728|  1.3942e-03|    0.203541|
|         650|  4.1292e+01|  4.1292e+01|   -7.096919|  1.2426e-03|    0.203493|
|         660|  2.1306e+01|  2.1306e+01|   -7.070885|  1.0828e-03|    0.203283|
|         670|  7.6342e+01|  7.6342e+01|   -7.033607|  9.9355e-04|    0.202707|
|         680|  7.6342e+01|  7.6342e+01|   -7.003928|  9.3962e-04|    0.201690|
|         690|  7.6342e+01|  7.6342e+01|   -7.012824|  8.6837e-04|    0.201532|
|         700|  7.6342e+01|  7.6342e+01|   -7.047915|  8.0643e-04|    0.202258|
|         710|  7.6342e+01|  7.6342e+01|   -7.062635|  6.0874e-04|    0.202901|
|         720|  7.6342e+01|  7.6342e+01|   -7.040822|  5.9367e-04|    0.203056|
|         730|  7.6342e+01|  7.6342e+01|   -7.019666|  5.7802e-04|    0.203213|
|         740|  1.5830e+01|  1.5830e+01|   -7.023066|  5.2665e-04|    0.203593|
|         750|  8.1681e+00|  8.1681e+00|   -7.029155|  4.6006e-04|    0.203980|
|         760|  5.0575e+01|  5.0575e+01|   -7.040268|  4.0997e-04|    0.204188|
|         770|  2.6095e+01|  2.6095e+01|   -7.057194|  3.2166e-04|    0.204533|
|         780|  7.7921e+01|  7.7921e+01|   -7.081110|  3.2109e-04|    0.205012|
|         790|  7.7921e+01|  7.7921e+01|   -7.137397|  3.2587e-04|    0.205528|
|         800|  7.7921e+01|  7.7921e+01|   -7.209341|  3.1133e-04|    0.205982|
+-----------------------------------------------------------------------+
|        File Writing Summary       |              Filename             |
+-----------------------------------------------------------------------+
|SU2 binary restart                 |restart_flow_G6.dat                |
|Paraview                           |flow_G6.vtu                        |
|Paraview surface                   |surface_flow_G6.vtu                |
+-----------------------------------------------------------------------+
+-----------------------------------------------------------------------------+
|  Inner_Iter|     Min CFL|     Max CFL|      rms[P]|  Cauchy[CD]|          CD|
+-----------------------------------------------------------------------------+
|         810|  9.3505e+01|  9.3505e+01|   -7.293409|  2.9619e-04|    0.206408|
|         820|  4.8246e+01|  4.8246e+01|   -7.334901|  2.8153e-04|    0.206560|
|         830|  2.4894e+01|  2.4894e+01|   -7.377619|  2.3684e-04|    0.206752|
|         840|  1.2845e+01|  1.2845e+01|   -7.426410|  1.9972e-04|    0.206978|
|         850|  7.9532e+01|  7.9532e+01|   -7.451067|  1.8586e-04|    0.207145|
|         860|  1.1453e+01|  1.1453e+01|   -7.494358|  1.6585e-04|    0.207428|
|         870|  7.0911e+01|  7.0911e+01|   -7.493481|  1.6139e-04|    0.207541|
|         880|  3.6589e+01|  3.6589e+01|   -7.494385|  1.6254e-04|    0.207632|
|         890|  7.5870e+01|  7.5870e+01|   -7.486877|  1.6437e-04|    0.207752|
|         900|  7.5870e+01|  7.5870e+01|   -7.473935|  1.6535e-04|    0.207852|
|         910|  7.5870e+01|  7.5870e+01|   -7.460901|  1.6367e-04|    0.207979|
|         920|  7.5870e+01|  7.5870e+01|   -7.446429|  1.5473e-04|    0.208105|
|         930|  3.2623e+01|  3.2623e+01|   -7.442551|  1.3522e-04|    0.208137|
|         940|  1.6833e+01|  1.6833e+01|   -7.435381|  1.2968e-04|    0.208174|
|         950|  7.2377e+01|  7.2377e+01|   -7.427268|  1.1548e-04|    0.208182|
|         960|  7.2377e+01|  7.2377e+01|   -7.419690|  1.0330e-04|    0.208155|
|         970|  7.2377e+01|  7.2377e+01|   -7.415496|  1.0044e-04|    0.208157|
|         980|  7.2377e+01|  7.2377e+01|   -7.417808|  9.7927e-05|    0.208188|
|         990|  7.2377e+01|  7.2377e+01|   -7.424361|  9.1034e-05|    0.208218|
|        1000|  7.2377e+01|  7.2377e+01|   -7.436738|  8.3664e-05|    0.208229|
+-----------------------------------------------------------------------+
|        File Writing Summary       |              Filename             |
+-----------------------------------------------------------------------+
|SU2 binary restart                 |restart_flow_G6.dat                |
|Paraview                           |flow_G6.vtu                        |
|Paraview surface                   |surface_flow_G6.vtu                |
+-----------------------------------------------------------------------+
+-----------------------------------------------------------------------------+
|  Inner_Iter|     Min CFL|     Max CFL|      rms[P]|  Cauchy[CD]|          CD|
+-----------------------------------------------------------------------------+
|        1010|  2.5934e+01|  2.5934e+01|   -7.450126|  7.9648e-05|    0.208233|
|        1020|  1.3381e+01|  1.3381e+01|   -7.460464|  7.3116e-05|    0.208244|
|        1030|  6.9045e+01|  6.9045e+01|   -7.469877|  6.3943e-05|    0.208254|
|        1040|  6.9045e+01|  6.9045e+01|   -7.496106|  5.4078e-05|    0.208264|
|        1050|  1.4317e+01|  1.4317e+01|   -7.519465|  4.5398e-05|    0.208271|
|        1060|  7.3874e+00|  7.3874e+00|   -7.528989|  3.7375e-05|    0.208284|
|        1070|  4.5741e+01|  4.5741e+01|   -7.538327|  3.4523e-05|    0.208289|
|        1080|  6.5867e+01|  6.5867e+01|   -7.550831|  3.1265e-05|    0.208313|
|        1090|  6.5867e+01|  6.5867e+01|   -7.563005|  2.7393e-05|    0.208339|
|        1100|  6.5867e+01|  6.5867e+01|   -7.567508|  2.4497e-05|    0.208356|
|        1110|  6.5867e+01|  6.5867e+01|   -7.568892|  1.9237e-05|    0.208366|
|        1120|  6.5867e+01|  6.5867e+01|   -7.572476|  1.7221e-05|    0.208375|
|        1130|  1.9668e+01|  1.9668e+01|   -7.579603|  1.5552e-05|    0.208379|
|        1140|  1.0148e+01|  1.0148e+01|   -7.584143|  1.3310e-05|    0.208382|
|        1150|  6.2834e+01|  6.2834e+01|   -7.588272|  1.1434e-05|    0.208384|
|        1160|  3.2421e+01|  3.2421e+01|   -7.594704|  9.0289e-06|    0.208386|
|        1170|  6.7228e+01|  6.7228e+01|   -7.604327|  6.7421e-06|    0.208382|
|        1180|  6.7228e+01|  6.7228e+01|   -7.625902|  6.4935e-06|    0.208362|
|        1190|  6.7228e+01|  6.7228e+01|   -7.649802|  6.3492e-06|    0.208333|
|        1200|  6.7228e+01|  6.7228e+01|   -7.674840|  6.6827e-06|    0.208306|
+-----------------------------------------------------------------------+
|        File Writing Summary       |              Filename             |
+-----------------------------------------------------------------------+
|SU2 binary restart                 |restart_flow_G6.dat                |
|Paraview                           |flow_G6.vtu                        |
|Paraview surface                   |surface_flow_G6.vtu                |
+-----------------------------------------------------------------------+
+-----------------------------------------------------------------------------+
|  Inner_Iter|     Min CFL|     Max CFL|      rms[P]|  Cauchy[CD]|          CD|
+-----------------------------------------------------------------------------+
|        1210|  1.6729e+01|  1.6729e+01|   -7.696299|  6.4629e-06|    0.208291|
|        1220|  8.6316e+00|  8.6316e+00|   -7.704721|  6.5644e-06|    0.208276|
|        1230|  5.3444e+01|  5.3444e+01|   -7.717334|  6.2134e-06|    0.208264|
|        1240|  6.4133e+01|  6.4133e+01|   -7.733320|  6.3640e-06|    0.208226|
|        1250|  6.4133e+01|  6.4133e+01|   -7.752985|  7.0445e-06|    0.208179|
|        1260|  6.4133e+01|  6.4133e+01|   -7.769424|  7.9211e-06|    0.208130|
|        1270|  6.4133e+01|  6.4133e+01|   -7.782125|  8.5767e-06|    0.208084|
|        1280|  6.4133e+01|  6.4133e+01|   -7.791037|  9.1624e-06|    0.208044|
|        1290|  6.4133e+01|  6.4133e+01|   -7.797442|  9.6837e-06|    0.208007|
|        1300|  6.4133e+01|  6.4133e+01|   -7.801766|  1.0197e-05|    0.207974|
|        1310|  6.4133e+01|  6.4133e+01|   -7.805036|  1.0446e-05|    0.207948|
|        1320|  6.4133e+01|  6.4133e+01|   -7.807929|  1.0717e-05|    0.207929|
|        1330|  6.4133e+01|  6.4133e+01|   -7.812354|  1.0547e-05|    0.207914|
|        1340|  6.4133e+01|  6.4133e+01|   -7.819180|  1.0166e-05|    0.207907|
|        1350|  6.4133e+01|  6.4133e+01|   -7.829665|  9.9152e-06|    0.207911|
|        1360|  6.4133e+01|  6.4133e+01|   -7.844285|  9.9557e-06|    0.207923|
|        1370|  6.4133e+01|  6.4133e+01|   -7.862136|  1.0160e-05|    0.207943|
|        1380|  6.4133e+01|  6.4133e+01|   -7.882035|  1.0593e-05|    0.207969|
|        1390|  6.4133e+01|  6.4133e+01|   -7.903285|  1.1169e-05|    0.208003|
|        1400|  6.4133e+01|  6.4133e+01|   -7.925737|  1.1922e-05|    0.208044|
+-----------------------------------------------------------------------+
|        File Writing Summary       |              Filename             |
+-----------------------------------------------------------------------+
|SU2 binary restart                 |restart_flow_G6.dat                |
|Paraview                           |flow_G6.vtu                        |
|Paraview surface                   |surface_flow_G6.vtu                |
+-----------------------------------------------------------------------+
+-----------------------------------------------------------------------------+
|  Inner_Iter|     Min CFL|     Max CFL|      rms[P]|  Cauchy[CD]|          CD|
+-----------------------------------------------------------------------------+
|        1410|  6.4133e+01|  6.4133e+01|   -7.949255|  1.2824e-05|    0.208094|
|        1420|  6.4133e+01|  6.4133e+01|   -7.973425|  1.3795e-05|    0.208151|
|        1430|  6.4133e+01|  6.4133e+01|   -7.997932|  1.4641e-05|    0.208214|
|        1440|  6.4133e+01|  6.4133e+01|   -8.022907|  1.5441e-05|    0.208285|
|        1450|  6.4133e+01|  6.4133e+01|   -8.048572|  1.6399e-05|    0.208362|
|        1460|  6.4133e+01|  6.4133e+01|   -8.074703|  1.7689e-05|    0.208444|
|        1470|  6.4133e+01|  6.4133e+01|   -8.100584|  1.9107e-05|    0.208533|
|        1480|  9.2352e+00|  9.2352e+00|   -8.128766|  2.0350e-05|    0.208610|
|        1490|  5.7182e+01|  5.7182e+01|   -8.138469|  2.0331e-05|    0.208647|
|        1500|  2.9505e+01|  2.9505e+01|   -8.149256|  2.0148e-05|    0.208685|
|        1510|  6.1181e+01|  6.1181e+01|   -8.157543|  2.0827e-05|    0.208769|
|        1520|  6.1181e+01|  6.1181e+01|   -8.177043|  2.1950e-05|    0.208873|
|        1530|  6.1181e+01|  6.1181e+01|   -8.193862|  2.3229e-05|    0.208981|
|        1540|  6.1181e+01|  6.1181e+01|   -8.208065|  2.4669e-05|    0.209093|
|        1550|  6.1181e+01|  6.1181e+01|   -8.219237|  2.6303e-05|    0.209212|
|        1560|  6.1181e+01|  6.1181e+01|   -8.228675|  2.8184e-05|    0.209337|
|        1570|  6.1181e+01|  6.1181e+01|   -8.237659|  3.0294e-05|    0.209466|
|        1580|  6.1181e+01|  6.1181e+01|   -8.246238|  3.2571e-05|    0.209601|
|        1590|  6.1181e+01|  6.1181e+01|   -8.255035|  3.5113e-05|    0.209740|
|        1600|  6.1181e+01|  6.1181e+01|   -8.265679|  3.7789e-05|    0.209885|
+-----------------------------------------------------------------------+
|        File Writing Summary       |              Filename             |
+-----------------------------------------------------------------------+
|SU2 binary restart                 |restart_flow_G6.dat                |
|Paraview                           |flow_G6.vtu                        |
|Paraview surface                   |surface_flow_G6.vtu                |
+-----------------------------------------------------------------------+
+-----------------------------------------------------------------------------+
|  Inner_Iter|     Min CFL|     Max CFL|      rms[P]|  Cauchy[CD]|          CD|
+-----------------------------------------------------------------------------+
|        1610|  6.1181e+01|  6.1181e+01|   -8.278902|  4.0372e-05|    0.210032|
|        1620|  6.1181e+01|  6.1181e+01|   -8.294895|  4.2892e-05|    0.210185|
|        1630|  6.1181e+01|  6.1181e+01|   -8.313898|  4.5369e-05|    0.210342|
|        1640|  6.1181e+01|  6.1181e+01|   -8.335608|  4.7786e-05|    0.210503|
|        1650|  6.1181e+01|  6.1181e+01|   -8.359518|  5.0108e-05|    0.210667|
|        1660|  6.1181e+01|  6.1181e+01|   -8.384799|  5.2328e-05|    0.210834|
|        1670|  6.1181e+01|  6.1181e+01|   -8.410073|  5.4453e-05|    0.211004|
|        1680|  6.1181e+01|  6.1181e+01|   -8.434178|  5.6486e-05|    0.211176|
|        1690|  6.1181e+01|  6.1181e+01|   -8.456521|  5.8429e-05|    0.211350|
|        1700|  6.1181e+01|  6.1181e+01|   -8.476771|  6.0282e-05|    0.211526|
|        1710|  6.1181e+01|  6.1181e+01|   -8.494816|  6.2041e-05|    0.211703|
|        1720|  6.1181e+01|  6.1181e+01|   -8.510886|  6.3706e-05|    0.211881|
|        1730|  6.1181e+01|  6.1181e+01|   -8.525472|  6.5602e-05|    0.212060|
|        1740|  6.1181e+01|  6.1181e+01|   -8.539102|  6.8269e-05|    0.212239|
|        1750|  2.6307e+01|  2.6307e+01|   -8.553855|  6.8795e-05|    0.212305|
|        1760|  1.3574e+01|  1.3574e+01|   -8.559555|  6.8832e-05|    0.212393|
|        1770|  5.8364e+01|  5.8364e+01|   -8.558794|  6.8705e-05|    0.212492|
|        1780|  5.8364e+01|  5.8364e+01|   -8.569126|  6.9863e-05|    0.212663|
|        1790|  5.8364e+01|  5.8364e+01|   -8.580468|  7.0936e-05|    0.212834|
|        1800|  5.8364e+01|  5.8364e+01|   -8.589983|  7.1854e-05|    0.213004|
+-----------------------------------------------------------------------+
|        File Writing Summary       |              Filename             |
+-----------------------------------------------------------------------+
|SU2 binary restart                 |restart_flow_G6.dat                |
|Paraview                           |flow_G6.vtu                        |
|Paraview surface                   |surface_flow_G6.vtu                |
+-----------------------------------------------------------------------+
+-----------------------------------------------------------------------------+
|  Inner_Iter|     Min CFL|     Max CFL|      rms[P]|  Cauchy[CD]|          CD|
+-----------------------------------------------------------------------------+
|        1810|  5.8364e+01|  5.8364e+01|   -8.597536|  7.2659e-05|    0.213174|
|        1820|  5.8364e+01|  5.8364e+01|   -8.603673|  7.3359e-05|    0.213344|
|        1830|  5.8364e+01|  5.8364e+01|   -8.608775|  7.3954e-05|    0.213512|
|        1840|  5.8364e+01|  5.8364e+01|   -8.612622|  7.4431e-05|    0.213680|
|        1850|  5.8364e+01|  5.8364e+01|   -8.614923|  7.4805e-05|    0.213847|
|        1860|  5.8364e+01|  5.8364e+01|   -8.616306|  7.5089e-05|    0.214013|
|        1870|  5.8364e+01|  5.8364e+01|   -8.617808|  7.5265e-05|    0.214177|
|        1880|  5.8364e+01|  5.8364e+01|   -8.619563|  7.5321e-05|    0.214340|
|        1890|  5.8364e+01|  5.8364e+01|   -8.621615|  7.5273e-05|    0.214502|
|        1900|  5.8364e+01|  5.8364e+01|   -8.624239|  7.5140e-05|    0.214662|
|        1910|  5.8364e+01|  5.8364e+01|   -8.627404|  7.4928e-05|    0.214821|
|        1920|  5.8364e+01|  5.8364e+01|   -8.631085|  7.4637e-05|    0.214978|
|        1930|  5.8364e+01|  5.8364e+01|   -8.635204|  7.4267e-05|    0.215133|
|        1940|  2.0913e+01|  2.0913e+01|   -8.644737|  7.2204e-05|    0.215200|
|        1950|  1.0791e+01|  1.0791e+01|   -8.645654|  7.0325e-05|    0.215277|
|        1960|  5.5677e+01|  5.5677e+01|   -8.644869|  6.8326e-05|    0.215350|
|        1970|  5.5677e+01|  5.5677e+01|   -8.644195|  6.7605e-05|    0.215492|
|        1980|  5.5677e+01|  5.5677e+01|   -8.648040|  6.6873e-05|    0.215635|
|        1990|  5.5677e+01|  5.5677e+01|   -8.650014|  6.6082e-05|    0.215775|
|        2000|  5.5677e+01|  5.5677e+01|   -8.650811|  6.7389e-05|    0.215912|
+-----------------------------------------------------------------------+
|        File Writing Summary       |              Filename             |
+-----------------------------------------------------------------------+
|SU2 binary restart                 |restart_flow_G6.dat                |
|Paraview                           |flow_G6.vtu                        |
|Paraview surface                   |surface_flow_G6.vtu                |
+-----------------------------------------------------------------------+
+-----------------------------------------------------------------------------+
|  Inner_Iter|     Min CFL|     Max CFL|      rms[P]|  Cauchy[CD]|          CD|
+-----------------------------------------------------------------------------+
|        2010|  5.5677e+01|  5.5677e+01|   -8.651633|  6.8245e-05|    0.216048|
|        2020|  5.5677e+01|  5.5677e+01|   -8.652370|  6.8843e-05|    0.216181|
|        2030|  5.5677e+01|  5.5677e+01|   -8.652659|  6.8060e-05|    0.216312|
|        2040|  5.5677e+01|  5.5677e+01|   -8.652938|  6.7220e-05|    0.216441|
|        2050|  5.5677e+01|  5.5677e+01|   -8.653121|  6.6371e-05|    0.216568|
|        2060|  5.5677e+01|  5.5677e+01|   -8.652998|  6.5489e-05|    0.216693|
|        2070|  5.5677e+01|  5.5677e+01|   -8.652844|  6.4566e-05|    0.216815|
|        2080|  5.5677e+01|  5.5677e+01|   -8.652673|  6.3614e-05|    0.216935|
|        2090|  5.5677e+01|  5.5677e+01|   -8.652087|  6.2638e-05|    0.217052|
|        2100|  5.5677e+01|  5.5677e+01|   -8.650978|  6.1640e-05|    0.217168|
|        2110|  5.5677e+01|  5.5677e+01|   -8.649578|  6.0623e-05|    0.217281|
|        2120|  5.5677e+01|  5.5677e+01|   -8.648045|  5.9591e-05|    0.217392|
|        2130|  5.5677e+01|  5.5677e+01|   -8.646317|  5.8549e-05|    0.217501|
|        2140|  5.5677e+01|  5.5677e+01|   -8.644313|  5.7493e-05|    0.217607|
|        2150|  5.5677e+01|  5.5677e+01|   -8.642059|  5.6421e-05|    0.217711|
|        2160|  5.5677e+01|  5.5677e+01|   -8.639677|  5.5337e-05|    0.217814|
|        2170|  5.5677e+01|  5.5677e+01|   -8.637344|  5.4248e-05|    0.217914|
|        2180|  5.5677e+01|  5.5677e+01|   -8.635828|  5.3159e-05|    0.218012|
|        2190|  5.5677e+01|  5.5677e+01|   -8.634190|  5.3696e-05|    0.218108|
|        2200|  5.5677e+01|  5.5677e+01|   -8.632525|  5.3981e-05|    0.218202|
+-----------------------------------------------------------------------+
|        File Writing Summary       |              Filename             |
+-----------------------------------------------------------------------+
|SU2 binary restart                 |restart_flow_G6.dat                |
|Paraview                           |flow_G6.vtu                        |
|Paraview surface                   |surface_flow_G6.vtu                |
+-----------------------------------------------------------------------+
+-----------------------------------------------------------------------------+
|  Inner_Iter|     Min CFL|     Max CFL|      rms[P]|  Cauchy[CD]|          CD|
+-----------------------------------------------------------------------------+
|        2210|  5.5677e+01|  5.5677e+01|   -8.630815|  5.4326e-05|    0.218295|
|        2220|  5.5677e+01|  5.5677e+01|   -8.629240|  5.3339e-05|    0.218385|
|        2230|  5.5677e+01|  5.5677e+01|   -8.628071|  5.2315e-05|    0.218474|
|        2240|  5.5677e+01|  5.5677e+01|   -8.627369|  5.1307e-05|    0.218560|
|        2250|  5.5677e+01|  5.5677e+01|   -8.626988|  5.0308e-05|    0.218645|
|        2260|  5.5677e+01|  5.5677e+01|   -8.626741|  4.9307e-05|    0.218727|
|        2270|  5.5677e+01|  5.5677e+01|   -8.626526|  4.8317e-05|    0.218808|
|        2280|  5.5677e+01|  5.5677e+01|   -8.626370|  4.7338e-05|    0.218887|
|        2290|  5.5677e+01|  5.5677e+01|   -8.626367|  4.6368e-05|    0.218965|
|        2300|  5.5677e+01|  5.5677e+01|   -8.626571|  4.5407e-05|    0.219041|
|        2310|  5.5677e+01|  5.5677e+01|   -8.626963|  4.4460e-05|    0.219115|
|        2320|  5.5677e+01|  5.5677e+01|   -8.627488|  4.3533e-05|    0.219188|
|        2330|  5.5677e+01|  5.5677e+01|   -8.628112|  4.2625e-05|    0.219259|
|        2340|  5.5677e+01|  5.5677e+01|   -8.628846|  4.1732e-05|    0.219329|
|        2350|  5.5677e+01|  5.5677e+01|   -8.629694|  4.0852e-05|    0.219397|
|        2360|  5.5677e+01|  5.5677e+01|   -8.630632|  3.9985e-05|    0.219464|
|        2370|  5.5677e+01|  5.5677e+01|   -8.631630|  3.9135e-05|    0.219529|
|        2380|  5.5677e+01|  5.5677e+01|   -8.632691|  3.8306e-05|    0.219594|
|        2390|  5.5677e+01|  5.5677e+01|   -8.633836|  3.7497e-05|    0.219657|
|        2400|  5.5677e+01|  5.5677e+01|   -8.635094|  3.6710e-05|    0.219719|
+-----------------------------------------------------------------------+
|        File Writing Summary       |              Filename             |
+-----------------------------------------------------------------------+
|SU2 binary restart                 |restart_flow_G6.dat                |
|Paraview                           |flow_G6.vtu                        |
|Paraview surface                   |surface_flow_G6.vtu                |
+-----------------------------------------------------------------------+
+-----------------------------------------------------------------------------+
|  Inner_Iter|     Min CFL|     Max CFL|      rms[P]|  Cauchy[CD]|          CD|
+-----------------------------------------------------------------------------+
|        2410|  5.5677e+01|  5.5677e+01|   -8.636487|  3.5943e-05|    0.219780|
|        2420|  5.5677e+01|  5.5677e+01|   -8.638028|  3.5196e-05|    0.219839|
|        2430|  5.5677e+01|  5.5677e+01|   -8.639713|  3.4467e-05|    0.219898|
|        2440|  5.5677e+01|  5.5677e+01|   -8.641543|  3.3750e-05|    0.219956|
|        2450|  5.5677e+01|  5.5677e+01|   -8.643520|  3.3054e-05|    0.220013|
|        2460|  5.5677e+01|  5.5677e+01|   -8.645665|  3.2380e-05|    0.220069|
|        2470|  5.5677e+01|  5.5677e+01|   -8.647999|  3.1727e-05|    0.220124|
|        2480|  5.5677e+01|  5.5677e+01|   -8.650553|  3.1096e-05|    0.220179|
|        2490|  5.5677e+01|  5.5677e+01|   -8.653342|  3.0489e-05|    0.220232|
|        2500|  5.5677e+01|  5.5677e+01|   -8.656371|  2.9905e-05|    0.220286|
|        2510|  5.5677e+01|  5.5677e+01|   -8.659637|  2.9345e-05|    0.220338|
|        2520|  5.5677e+01|  5.5677e+01|   -8.663127|  2.8808e-05|    0.220390|
|        2530|  5.5677e+01|  5.5677e+01|   -8.666818|  2.8291e-05|    0.220441|
|        2540|  5.5677e+01|  5.5677e+01|   -8.670691|  2.7794e-05|    0.220492|
|        2550|  5.5677e+01|  5.5677e+01|   -8.674742|  2.7317e-05|    0.220542|
|        2560|  5.5677e+01|  5.5677e+01|   -8.678966|  2.6859e-05|    0.220591|
|        2570|  5.5677e+01|  5.5677e+01|   -8.683364|  2.6421e-05|    0.220640|
|        2580|  5.5677e+01|  5.5677e+01|   -8.687919|  2.6004e-05|    0.220689|
|        2590|  5.5677e+01|  5.5677e+01|   -8.692612|  2.5607e-05|    0.220737|
|        2600|  5.5677e+01|  5.5677e+01|   -8.697426|  2.5231e-05|    0.220785|
+-----------------------------------------------------------------------+
|        File Writing Summary       |              Filename             |
+-----------------------------------------------------------------------+
|SU2 binary restart                 |restart_flow_G6.dat                |
|Paraview                           |flow_G6.vtu                        |
|Paraview surface                   |surface_flow_G6.vtu                |
+-----------------------------------------------------------------------+
+-----------------------------------------------------------------------------+
|  Inner_Iter|     Min CFL|     Max CFL|      rms[P]|  Cauchy[CD]|          CD|
+-----------------------------------------------------------------------------+
|        2610|  5.5677e+01|  5.5677e+01|   -8.702348|  2.4874e-05|    0.220833|
|        2620|  5.5677e+01|  5.5677e+01|   -8.707389|  2.4536e-05|    0.220880|
|        2630|  5.5677e+01|  5.5677e+01|   -8.712555|  2.4216e-05|    0.220927|
|        2640|  5.5677e+01|  5.5677e+01|   -8.717836|  2.3911e-05|    0.220974|
|        2650|  5.5677e+01|  5.5677e+01|   -8.723215|  2.3622e-05|    0.221020|
|        2660|  5.5677e+01|  5.5677e+01|   -8.728670|  2.3348e-05|    0.221066|
|        2670|  5.5677e+01|  5.5677e+01|   -8.734186|  2.3088e-05|    0.221112|
|        2680|  5.5677e+01|  5.5677e+01|   -8.739766|  2.2844e-05|    0.221158|
|        2690|  5.5677e+01|  5.5677e+01|   -8.745428|  2.2614e-05|    0.221203|
|        2700|  5.5677e+01|  5.5677e+01|   -8.751184|  2.2398e-05|    0.221249|
|        2710|  5.5677e+01|  5.5677e+01|   -8.757032|  2.2196e-05|    0.221294|
|        2720|  5.5677e+01|  5.5677e+01|   -8.762965|  2.2005e-05|    0.221339|
|        2730|  5.5677e+01|  5.5677e+01|   -8.768975|  2.1826e-05|    0.221383|
|        2740|  5.5677e+01|  5.5677e+01|   -8.775067|  2.1658e-05|    0.221428|
|        2750|  5.5677e+01|  5.5677e+01|   -8.781250|  2.1499e-05|    0.221473|
|        2760|  5.5677e+01|  5.5677e+01|   -8.787527|  2.1349e-05|    0.221517|
|        2770|  5.5677e+01|  5.5677e+01|   -8.793900|  2.1209e-05|    0.221562|
|        2780|  5.5677e+01|  5.5677e+01|   -8.800350|  2.1077e-05|    0.221606|
|        2790|  5.5677e+01|  5.5677e+01|   -8.806850|  2.0955e-05|    0.221650|
|        2800|  5.5677e+01|  5.5677e+01|   -8.813394|  2.0841e-05|    0.221694|
+-----------------------------------------------------------------------+
|        File Writing Summary       |              Filename             |
+-----------------------------------------------------------------------+
|SU2 binary restart                 |restart_flow_G6.dat                |
|Paraview                           |flow_G6.vtu                        |
|Paraview surface                   |surface_flow_G6.vtu                |
+-----------------------------------------------------------------------+
+-----------------------------------------------------------------------------+
|  Inner_Iter|     Min CFL|     Max CFL|      rms[P]|  Cauchy[CD]|          CD|
+-----------------------------------------------------------------------------+
|        2810|  5.5677e+01|  5.5677e+01|   -8.819983|  2.0735e-05|    0.221738|
|        2820|  5.5677e+01|  5.5677e+01|   -8.826622|  2.0635e-05|    0.221782|
|        2830|  5.5677e+01|  5.5677e+01|   -8.833306|  2.0541e-05|    0.221825|
|        2840|  5.5677e+01|  5.5677e+01|   -8.840023|  2.0454e-05|    0.221869|
|        2850|  5.5677e+01|  5.5677e+01|   -8.846749|  2.0371e-05|    0.221913|
|        2860|  5.5677e+01|  5.5677e+01|   -8.853467|  2.0293e-05|    0.221956|
|        2870|  5.5677e+01|  5.5677e+01|   -8.860183|  2.0220e-05|    0.222000|
|        2880|  5.5677e+01|  5.5677e+01|   -8.866903|  2.0150e-05|    0.222043|
|        2890|  5.5677e+01|  5.5677e+01|   -8.873627|  2.0085e-05|    0.222086|
|        2900|  5.5677e+01|  5.5677e+01|   -8.880347|  2.0023e-05|    0.222129|
|        2910|  5.5677e+01|  5.5677e+01|   -8.887051|  1.9964e-05|    0.222172|
|        2920|  5.5677e+01|  5.5677e+01|   -8.893727|  1.9908e-05|    0.222215|
|        2930|  5.5677e+01|  5.5677e+01|   -8.900377|  1.9854e-05|    0.222258|
|        2940|  5.5677e+01|  5.5677e+01|   -8.907003|  1.9801e-05|    0.222301|
|        2950|  5.5677e+01|  5.5677e+01|   -8.913604|  1.9750e-05|    0.222344|
|        2960|  5.5677e+01|  5.5677e+01|   -8.920169|  1.9699e-05|    0.222386|
|        2970|  5.5677e+01|  5.5677e+01|   -8.926684|  1.9650e-05|    0.222429|
|        2980|  5.5677e+01|  5.5677e+01|   -8.933145|  1.9600e-05|    0.222471|
|        2990|  5.5677e+01|  5.5677e+01|   -8.939567|  1.9551e-05|    0.222513|
|        3000|  5.5677e+01|  5.5677e+01|   -8.945957|  1.9502e-05|    0.222555|
+-----------------------------------------------------------------------+
|        File Writing Summary       |              Filename             |
+-----------------------------------------------------------------------+
|SU2 binary restart                 |restart_flow_G6.dat                |
|Paraview                           |flow_G6.vtu                        |
|Paraview surface                   |surface_flow_G6.vtu                |
+-----------------------------------------------------------------------+
+-----------------------------------------------------------------------------+
|  Inner_Iter|     Min CFL|     Max CFL|      rms[P]|  Cauchy[CD]|          CD|
+-----------------------------------------------------------------------------+
|        3010|  5.5677e+01|  5.5677e+01|   -8.952324|  1.9453e-05|    0.222597|
|        3020|  5.5677e+01|  5.5677e+01|   -8.958673|  1.9403e-05|    0.222639|
|        3030|  5.5677e+01|  5.5677e+01|   -8.964984|  1.9352e-05|    0.222681|
|        3040|  5.5677e+01|  5.5677e+01|   -8.971242|  1.9301e-05|    0.222722|
|        3050|  5.5677e+01|  5.5677e+01|   -8.977440|  1.9249e-05|    0.222763|
|        3060|  5.5677e+01|  5.5677e+01|   -8.983586|  1.9195e-05|    0.222804|
|        3070|  5.5677e+01|  5.5677e+01|   -8.989686|  1.9140e-05|    0.222845|
|        3080|  5.5677e+01|  5.5677e+01|   -8.995738|  1.9083e-05|    0.222886|
|        3090|  5.5677e+01|  5.5677e+01|   -9.001731|  1.9024e-05|    0.222927|
|        3100|  5.5677e+01|  5.5677e+01|   -9.007653|  1.8964e-05|    0.222967|
|        3110|  5.5677e+01|  5.5677e+01|   -9.013513|  1.8902e-05|    0.223007|
|        3120|  5.5677e+01|  5.5677e+01|   -9.019330|  1.8837e-05|    0.223048|
|        3130|  5.5677e+01|  5.5677e+01|   -9.025110|  1.8771e-05|    0.223087|
|        3140|  5.5677e+01|  5.5677e+01|   -9.030840|  1.8702e-05|    0.223127|
|        3150|  5.5677e+01|  5.5677e+01|   -9.036497|  1.8631e-05|    0.223166|
|        3160|  5.5677e+01|  5.5677e+01|   -9.042075|  1.8556e-05|    0.223205|
|        3170|  5.5677e+01|  5.5677e+01|   -9.047570|  1.8479e-05|    0.223244|
|        3180|  5.5677e+01|  5.5677e+01|   -9.052977|  1.8400e-05|    0.223283|
|        3190|  5.5677e+01|  5.5677e+01|   -9.058287|  1.8319e-05|    0.223321|
|        3200|  5.5677e+01|  5.5677e+01|   -9.063503|  1.8234e-05|    0.223360|
+-----------------------------------------------------------------------+
|        File Writing Summary       |              Filename             |
+-----------------------------------------------------------------------+
|SU2 binary restart                 |restart_flow_G6.dat                |
|Paraview                           |flow_G6.vtu                        |
|Paraview surface                   |surface_flow_G6.vtu                |
+-----------------------------------------------------------------------+
+-----------------------------------------------------------------------------+
|  Inner_Iter|     Min CFL|     Max CFL|      rms[P]|  Cauchy[CD]|          CD|
+-----------------------------------------------------------------------------+
|        3210|  5.5677e+01|  5.5677e+01|   -9.068641|  1.8147e-05|    0.223397|
|        3220|  5.5677e+01|  5.5677e+01|   -9.073717|  1.8058e-05|    0.223435|
|        3230|  5.5677e+01|  5.5677e+01|   -9.078727|  1.7966e-05|    0.223472|
|        3240|  5.5677e+01|  5.5677e+01|   -9.083654|  1.7872e-05|    0.223510|
|        3250|  5.5677e+01|  5.5677e+01|   -9.088496|  1.7775e-05|    0.223546|
|        3260|  5.5677e+01|  5.5677e+01|   -9.093267|  1.7675e-05|    0.223583|
|        3270|  5.5677e+01|  5.5677e+01|   -9.097980|  1.7573e-05|    0.223619|
|        3280|  5.5677e+01|  5.5677e+01|   -9.102641|  1.7469e-05|    0.223655|
|        3290|  5.5677e+01|  5.5677e+01|   -9.107244|  1.7362e-05|    0.223691|
|        3300|  5.5677e+01|  5.5677e+01|   -9.111779|  1.7254e-05|    0.223726|
|        3310|  5.5677e+01|  5.5677e+01|   -9.116240|  1.7143e-05|    0.223761|
|        3320|  5.5677e+01|  5.5677e+01|   -9.120633|  1.7031e-05|    0.223796|
|        3330|  5.5677e+01|  5.5677e+01|   -9.124969|  1.6916e-05|    0.223831|
|        3340|  5.5677e+01|  5.5677e+01|   -9.129260|  1.6799e-05|    0.223865|
|        3350|  5.5677e+01|  5.5677e+01|   -9.133503|  1.6680e-05|    0.223899|
|        3360|  5.5677e+01|  5.5677e+01|   -9.137702|  1.6559e-05|    0.223933|
|        3370|  5.5677e+01|  5.5677e+01|   -9.141858|  1.6437e-05|    0.223966|
|        3380|  5.5677e+01|  5.5677e+01|   -9.145984|  1.6313e-05|    0.223999|
|        3390|  5.5677e+01|  5.5677e+01|   -9.150090|  1.6188e-05|    0.224032|
|        3400|  5.5677e+01|  5.5677e+01|   -9.154174|  1.6061e-05|    0.224064|
+-----------------------------------------------------------------------+
|        File Writing Summary       |              Filename             |
+-----------------------------------------------------------------------+
|SU2 binary restart                 |restart_flow_G6.dat                |
|Paraview                           |flow_G6.vtu                        |
|Paraview surface                   |surface_flow_G6.vtu                |
+-----------------------------------------------------------------------+
+-----------------------------------------------------------------------------+
|  Inner_Iter|     Min CFL|     Max CFL|      rms[P]|  Cauchy[CD]|          CD|
+-----------------------------------------------------------------------------+
|        3410|  5.5677e+01|  5.5677e+01|   -9.158221|  1.5932e-05|    0.224096|
|        3420|  5.5677e+01|  5.5677e+01|   -9.162216|  1.5803e-05|    0.224128|
|        3430|  5.5677e+01|  5.5677e+01|   -9.166150|  1.5672e-05|    0.224160|
|        3440|  5.5677e+01|  5.5677e+01|   -9.170031|  1.5540e-05|    0.224191|
|        3450|  5.5677e+01|  5.5677e+01|   -9.173881|  1.5407e-05|    0.224222|
|        3460|  5.5677e+01|  5.5677e+01|   -9.177716|  1.5274e-05|    0.224252|
|        3470|  5.5677e+01|  5.5677e+01|   -9.181535|  1.5139e-05|    0.224282|
|        3480|  5.5677e+01|  5.5677e+01|   -9.185325|  1.5004e-05|    0.224312|
|        3490|  5.5677e+01|  5.5677e+01|   -9.189085|  1.4868e-05|    0.224342|
|        3500|  5.5677e+01|  5.5677e+01|   -9.192824|  1.4732e-05|    0.224371|
|        3510|  5.5677e+01|  5.5677e+01|   -9.196547|  1.4595e-05|    0.224400|
|        3520|  5.5677e+01|  5.5677e+01|   -9.200263|  1.4458e-05|    0.224429|
|        3530|  5.5677e+01|  5.5677e+01|   -9.203976|  1.4321e-05|    0.224457|
|        3540|  5.5677e+01|  5.5677e+01|   -9.207686|  1.4183e-05|    0.224485|
|        3550|  5.5677e+01|  5.5677e+01|   -9.211380|  1.4045e-05|    0.224513|
|        3560|  5.5677e+01|  5.5677e+01|   -9.215059|  1.3907e-05|    0.224541|
|        3570|  5.5677e+01|  5.5677e+01|   -9.218722|  1.3769e-05|    0.224568|
|        3580|  5.5677e+01|  5.5677e+01|   -9.222373|  1.3632e-05|    0.224595|
|        3590|  5.5677e+01|  5.5677e+01|   -9.226014|  1.3494e-05|    0.224622|
|        3600|  5.5677e+01|  5.5677e+01|   -9.229648|  1.3357e-05|    0.224648|
+-----------------------------------------------------------------------+
|        File Writing Summary       |              Filename             |
+-----------------------------------------------------------------------+
|SU2 binary restart                 |restart_flow_G6.dat                |
|Paraview                           |flow_G6.vtu                        |
|Paraview surface                   |surface_flow_G6.vtu                |
+-----------------------------------------------------------------------+
+-----------------------------------------------------------------------------+
|  Inner_Iter|     Min CFL|     Max CFL|      rms[P]|  Cauchy[CD]|          CD|
+-----------------------------------------------------------------------------+
|        3610|  5.5677e+01|  5.5677e+01|   -9.233278|  1.3220e-05|    0.224674|
|        3620|  5.5677e+01|  5.5677e+01|   -9.236905|  1.3083e-05|    0.224700|
|        3630|  5.5677e+01|  5.5677e+01|   -9.240533|  1.2947e-05|    0.224725|
|        3640|  5.5677e+01|  5.5677e+01|   -9.244171|  1.2812e-05|    0.224750|
|        3650|  5.5677e+01|  5.5677e+01|   -9.247826|  1.2677e-05|    0.224775|
|        3660|  5.5677e+01|  5.5677e+01|   -9.251503|  1.2543e-05|    0.224800|
|        3670|  5.5677e+01|  5.5677e+01|   -9.255196|  1.2410e-05|    0.224824|
|        3680|  5.5677e+01|  5.5677e+01|   -9.258892|  1.2278e-05|    0.224849|
|        3690|  5.5677e+01|  5.5677e+01|   -9.262579|  1.2147e-05|    0.224873|
|        3700|  5.5677e+01|  5.5677e+01|   -9.266271|  1.2017e-05|    0.224896|
|        3710|  5.5677e+01|  5.5677e+01|   -9.269981|  1.1888e-05|    0.224920|
|        3720|  5.5677e+01|  5.5677e+01|   -9.273715|  1.1759e-05|    0.224943|
|        3730|  5.5677e+01|  5.5677e+01|   -9.277475|  1.1632e-05|    0.224966|
|        3740|  5.5677e+01|  5.5677e+01|   -9.281254|  1.1506e-05|    0.224988|
|        3750|  5.5677e+01|  5.5677e+01|   -9.285052|  1.1381e-05|    0.225011|
|        3760|  5.5677e+01|  5.5677e+01|   -9.288876|  1.1258e-05|    0.225033|
|        3770|  5.5677e+01|  5.5677e+01|   -9.292725|  1.1135e-05|    0.225055|
|        3780|  5.5677e+01|  5.5677e+01|   -9.296599|  1.1014e-05|    0.225076|
|        3790|  5.5677e+01|  5.5677e+01|   -9.300491|  1.0894e-05|    0.225098|
|        3800|  5.5677e+01|  5.5677e+01|   -9.304405|  1.0775e-05|    0.225119|
+-----------------------------------------------------------------------+
|        File Writing Summary       |              Filename             |
+-----------------------------------------------------------------------+
|SU2 binary restart                 |restart_flow_G6.dat                |
|Paraview                           |flow_G6.vtu                        |
|Paraview surface                   |surface_flow_G6.vtu                |
+-----------------------------------------------------------------------+
+-----------------------------------------------------------------------------+
|  Inner_Iter|     Min CFL|     Max CFL|      rms[P]|  Cauchy[CD]|          CD|
+-----------------------------------------------------------------------------+
|        3810|  5.5677e+01|  5.5677e+01|   -9.308335|  1.0657e-05|    0.225140|
|        3820|  5.5677e+01|  5.5677e+01|   -9.312285|  1.0541e-05|    0.225161|
|        3830|  5.5677e+01|  5.5677e+01|   -9.316264|  1.0426e-05|    0.225181|
|        3840|  5.5677e+01|  5.5677e+01|   -9.320269|  1.0312e-05|    0.225201|
|        3850|  5.5677e+01|  5.5677e+01|   -9.324298|  1.0200e-05|    0.225221|
|        3860|  5.5677e+01|  5.5677e+01|   -9.328354|  1.0089e-05|    0.225241|
|        3870|  5.5677e+01|  5.5677e+01|   -9.332435|  9.9800e-06|    0.225261|
|        3880|  5.5677e+01|  5.5677e+01|   -9.336538|  9.8718e-06|    0.225281|
|        3890|  5.5677e+01|  5.5677e+01|   -9.340664|  9.7649e-06|    0.225300|
|        3900|  5.5677e+01|  5.5677e+01|   -9.344821|  9.6593e-06|    0.225319|
|        3910|  5.5677e+01|  5.5677e+01|   -9.349004|  9.5550e-06|    0.225338|
|        3920|  5.5677e+01|  5.5677e+01|   -9.353213|  9.4520e-06|    0.225356|
|        3930|  5.5677e+01|  5.5677e+01|   -9.357444|  9.3504e-06|    0.225375|
|        3940|  5.5677e+01|  5.5677e+01|   -9.361694|  9.2502e-06|    0.225393|
|        3950|  5.5677e+01|  5.5677e+01|   -9.365964|  9.1515e-06|    0.225411|
|        3960|  5.5677e+01|  5.5677e+01|   -9.370259|  9.0540e-06|    0.225429|
|        3970|  5.5677e+01|  5.5677e+01|   -9.374579|  8.9579e-06|    0.225447|
|        3980|  5.5677e+01|  5.5677e+01|   -9.378922|  8.8631e-06|    0.225465|
|        3990|  5.5677e+01|  5.5677e+01|   -9.383285|  8.7695e-06|    0.225482|
|        4000|  5.5677e+01|  5.5677e+01|   -9.387666|  8.6772e-06|    0.225499|
+-----------------------------------------------------------------------+
|        File Writing Summary       |              Filename             |
+-----------------------------------------------------------------------+
|SU2 binary restart                 |restart_flow_G6.dat                |
|Paraview                           |flow_G6.vtu                        |
|Paraview surface                   |surface_flow_G6.vtu                |
+-----------------------------------------------------------------------+
+-----------------------------------------------------------------------------+
|  Inner_Iter|     Min CFL|     Max CFL|      rms[P]|  Cauchy[CD]|          CD|
+-----------------------------------------------------------------------------+
|        4010|  5.5677e+01|  5.5677e+01|   -9.392066|  8.5863e-06|    0.225516|
|        4020|  5.5677e+01|  5.5677e+01|   -9.396488|  8.4967e-06|    0.225533|
|        4030|  5.5677e+01|  5.5677e+01|   -9.400931|  8.4084e-06|    0.225550|
|        4040|  5.5677e+01|  5.5677e+01|   -9.405392|  8.3214e-06|    0.225566|
|        4050|  5.5677e+01|  5.5677e+01|   -9.409859|  8.2356e-06|    0.225583|
|        4060|  5.5677e+01|  5.5677e+01|   -9.414335|  8.1511e-06|    0.225599|
|        4070|  5.5677e+01|  5.5677e+01|   -9.418834|  8.0679e-06|    0.225615|
|        4080|  5.5677e+01|  5.5677e+01|   -9.423365|  7.9859e-06|    0.225631|
|        4090|  5.5677e+01|  5.5677e+01|   -9.427925|  7.9050e-06|    0.225647|
|        4100|  5.5677e+01|  5.5677e+01|   -9.432505|  7.8253e-06|    0.225663|
|        4110|  5.5677e+01|  5.5677e+01|   -9.437094|  7.7468e-06|    0.225678|
|        4120|  5.5677e+01|  5.5677e+01|   -9.441691|  7.6693e-06|    0.225693|
|        4130|  5.5677e+01|  5.5677e+01|   -9.446298|  7.5929e-06|    0.225709|
|        4140|  5.5677e+01|  5.5677e+01|   -9.450919|  7.5177e-06|    0.225724|
|        4150|  5.5677e+01|  5.5677e+01|   -9.455552|  7.4435e-06|    0.225739|
|        4160|  5.5677e+01|  5.5677e+01|   -9.460197|  7.3703e-06|    0.225753|
|        4170|  5.5677e+01|  5.5677e+01|   -9.464854|  7.2983e-06|    0.225768|
|        4180|  5.5677e+01|  5.5677e+01|   -9.469519|  7.2272e-06|    0.225782|
|        4190|  5.5677e+01|  5.5677e+01|   -9.474198|  7.1571e-06|    0.225797|
|        4200|  5.5677e+01|  5.5677e+01|   -9.478890|  7.0880e-06|    0.225811|
+-----------------------------------------------------------------------+
|        File Writing Summary       |              Filename             |
+-----------------------------------------------------------------------+
|SU2 binary restart                 |restart_flow_G6.dat                |
|Paraview                           |flow_G6.vtu                        |
|Paraview surface                   |surface_flow_G6.vtu                |
+-----------------------------------------------------------------------+
+-----------------------------------------------------------------------------+
|  Inner_Iter|     Min CFL|     Max CFL|      rms[P]|  Cauchy[CD]|          CD|
+-----------------------------------------------------------------------------+
|        4210|  5.5677e+01|  5.5677e+01|   -9.483595|  7.0197e-06|    0.225825|
|        4220|  5.5677e+01|  5.5677e+01|   -9.488306|  6.9523e-06|    0.225839|
|        4230|  5.5677e+01|  5.5677e+01|   -9.493029|  6.8858e-06|    0.225853|
|        4240|  5.5677e+01|  5.5677e+01|   -9.497762|  6.8201e-06|    0.225867|
|        4250|  5.5677e+01|  5.5677e+01|   -9.502501|  6.7552e-06|    0.225880|
|        4260|  5.5677e+01|  5.5677e+01|   -9.507243|  6.6912e-06|    0.225894|
|        4270|  5.5677e+01|  5.5677e+01|   -9.511986|  6.6279e-06|    0.225907|
|        4280|  5.5677e+01|  5.5677e+01|   -9.516728|  6.5655e-06|    0.225920|
|        4290|  5.5677e+01|  5.5677e+01|   -9.521469|  6.5037e-06|    0.225933|
|        4300|  5.5677e+01|  5.5677e+01|   -9.526215|  6.4427e-06|    0.225946|
|        4310|  5.5677e+01|  5.5677e+01|   -9.530970|  6.3823e-06|    0.225959|
|        4320|  5.5677e+01|  5.5677e+01|   -9.535735|  6.3227e-06|    0.225972|
|        4330|  5.5677e+01|  5.5677e+01|   -9.540507|  6.2638e-06|    0.225985|
|        4340|  5.5677e+01|  5.5677e+01|   -9.545276|  6.2054e-06|    0.225997|
|        4350|  5.5677e+01|  5.5677e+01|   -9.550038|  6.1477e-06|    0.226010|
|        4360|  5.5677e+01|  5.5677e+01|   -9.554793|  6.0905e-06|    0.226022|
|        4370|  5.5677e+01|  5.5677e+01|   -9.559544|  6.0340e-06|    0.226034|
|        4380|  5.5677e+01|  5.5677e+01|   -9.564292|  5.9781e-06|    0.226046|
|        4390|  5.5677e+01|  5.5677e+01|   -9.569039|  5.9229e-06|    0.226058|
|        4400|  5.5677e+01|  5.5677e+01|   -9.573784|  5.8681e-06|    0.226070|
+-----------------------------------------------------------------------+
|        File Writing Summary       |              Filename             |
+-----------------------------------------------------------------------+
|SU2 binary restart                 |restart_flow_G6.dat                |
|Paraview                           |flow_G6.vtu                        |
|Paraview surface                   |surface_flow_G6.vtu                |
+-----------------------------------------------------------------------+
+-----------------------------------------------------------------------------+
|  Inner_Iter|     Min CFL|     Max CFL|      rms[P]|  Cauchy[CD]|          CD|
+-----------------------------------------------------------------------------+
|        4410|  5.5677e+01|  5.5677e+01|   -9.578525|  5.8139e-06|    0.226082|
|        4420|  5.5677e+01|  5.5677e+01|   -9.583257|  5.7603e-06|    0.226093|
|        4430|  5.5677e+01|  5.5677e+01|   -9.587978|  5.7071e-06|    0.226105|
|        4440|  5.5677e+01|  5.5677e+01|   -9.592697|  5.6544e-06|    0.226116|
|        4450|  5.5677e+01|  5.5677e+01|   -9.597423|  5.6022e-06|    0.226128|
|        4460|  5.5677e+01|  5.5677e+01|   -9.602152|  5.5505e-06|    0.226139|
|        4470|  5.5677e+01|  5.5677e+01|   -9.606879|  5.4993e-06|    0.226150|
|        4480|  5.5677e+01|  5.5677e+01|   -9.611595|  5.4486e-06|    0.226161|
|        4490|  5.5677e+01|  5.5677e+01|   -9.616297|  5.3984e-06|    0.226172|
|        4500|  5.5677e+01|  5.5677e+01|   -9.620990|  5.3486e-06|    0.226183|
|        4510|  5.5677e+01|  5.5677e+01|   -9.625677|  5.2992e-06|    0.226193|
|        4520|  5.5677e+01|  5.5677e+01|   -9.630364|  5.2503e-06|    0.226204|
|        4530|  5.5677e+01|  5.5677e+01|   -9.635048|  5.2018e-06|    0.226214|
|        4540|  5.5677e+01|  5.5677e+01|   -9.639729|  5.1537e-06|    0.226225|
|        4550|  5.5677e+01|  5.5677e+01|   -9.644404|  5.1060e-06|    0.226235|
|        4560|  5.5677e+01|  5.5677e+01|   -9.649073|  5.0588e-06|    0.226245|
|        4570|  5.5677e+01|  5.5677e+01|   -9.653732|  5.0119e-06|    0.226255|
|        4580|  5.5677e+01|  5.5677e+01|   -9.658380|  4.9654e-06|    0.226265|
|        4590|  5.5677e+01|  5.5677e+01|   -9.663023|  4.9193e-06|    0.226275|
|        4600|  5.5677e+01|  5.5677e+01|   -9.667663|  4.8736e-06|    0.226285|
+-----------------------------------------------------------------------+
|        File Writing Summary       |              Filename             |
+-----------------------------------------------------------------------+
|SU2 binary restart                 |restart_flow_G6.dat                |
|Paraview                           |flow_G6.vtu                        |
|Paraview surface                   |surface_flow_G6.vtu                |
+-----------------------------------------------------------------------+
+-----------------------------------------------------------------------------+
|  Inner_Iter|     Min CFL|     Max CFL|      rms[P]|  Cauchy[CD]|          CD|
+-----------------------------------------------------------------------------+
|        4610|  5.5677e+01|  5.5677e+01|   -9.672298|  4.8283e-06|    0.226295|
|        4620|  5.5677e+01|  5.5677e+01|   -9.676925|  4.7834e-06|    0.226305|
|        4630|  5.5677e+01|  5.5677e+01|   -9.681546|  4.7388e-06|    0.226314|
|        4640|  5.5677e+01|  5.5677e+01|   -9.686161|  4.6946e-06|    0.226324|
|        4650|  5.5677e+01|  5.5677e+01|   -9.690771|  4.6507e-06|    0.226333|
|        4660|  5.5677e+01|  5.5677e+01|   -9.695376|  4.6072e-06|    0.226342|
|        4670|  5.5677e+01|  5.5677e+01|   -9.699976|  4.5640e-06|    0.226351|
|        4680|  5.5677e+01|  5.5677e+01|   -9.704568|  4.5212e-06|    0.226361|
|        4690|  5.5677e+01|  5.5677e+01|   -9.709153|  4.4787e-06|    0.226370|
|        4700|  5.5677e+01|  5.5677e+01|   -9.713730|  4.4365e-06|    0.226378|
|        4710|  5.5677e+01|  5.5677e+01|   -9.718299|  4.3947e-06|    0.226387|
|        4720|  5.5677e+01|  5.5677e+01|   -9.722863|  4.3532e-06|    0.226396|
|        4730|  5.5677e+01|  5.5677e+01|   -9.727424|  4.3119e-06|    0.226405|
|        4740|  5.5677e+01|  5.5677e+01|   -9.731979|  4.2711e-06|    0.226413|
|        4750|  5.5677e+01|  5.5677e+01|   -9.736527|  4.2306e-06|    0.226422|
|        4760|  5.5677e+01|  5.5677e+01|   -9.741065|  4.1904e-06|    0.226430|
|        4770|  5.5677e+01|  5.5677e+01|   -9.745597|  4.1505e-06|    0.226439|
|        4780|  5.5677e+01|  5.5677e+01|   -9.750127|  4.1109e-06|    0.226447|
|        4790|  5.5677e+01|  5.5677e+01|   -9.754655|  4.0717e-06|    0.226455|
|        4800|  5.5677e+01|  5.5677e+01|   -9.759178|  4.0327e-06|    0.226463|
+-----------------------------------------------------------------------+
|        File Writing Summary       |              Filename             |
+-----------------------------------------------------------------------+
|SU2 binary restart                 |restart_flow_G6.dat                |
|Paraview                           |flow_G6.vtu                        |
|Paraview surface                   |surface_flow_G6.vtu                |
+-----------------------------------------------------------------------+
+-----------------------------------------------------------------------------+
|  Inner_Iter|     Min CFL|     Max CFL|      rms[P]|  Cauchy[CD]|          CD|
+-----------------------------------------------------------------------------+
|        4810|  5.5677e+01|  5.5677e+01|   -9.763693|  3.9941e-06|    0.226471|
|        4820|  5.5677e+01|  5.5677e+01|   -9.768202|  3.9558e-06|    0.226479|
|        4830|  5.5677e+01|  5.5677e+01|   -9.772707|  3.9178e-06|    0.226487|
|        4840|  5.5677e+01|  5.5677e+01|   -9.777206|  3.8801e-06|    0.226495|
|        4850|  5.5677e+01|  5.5677e+01|   -9.781702|  3.8427e-06|    0.226503|
|        4860|  5.5677e+01|  5.5677e+01|   -9.786196|  3.8056e-06|    0.226510|
|        4870|  5.5677e+01|  5.5677e+01|   -9.790686|  3.7688e-06|    0.226518|
|        4880|  5.5677e+01|  5.5677e+01|   -9.795170|  3.7323e-06|    0.226525|
|        4890|  5.5677e+01|  5.5677e+01|   -9.799646|  3.6961e-06|    0.226533|
|        4900|  5.5677e+01|  5.5677e+01|   -9.804116|  3.6602e-06|    0.226540|
|        4910|  5.5677e+01|  5.5677e+01|   -9.808583|  3.6246e-06|    0.226547|
|        4920|  5.5677e+01|  5.5677e+01|   -9.813048|  3.5893e-06|    0.226555|
|        4930|  5.5677e+01|  5.5677e+01|   -9.817513|  3.5543e-06|    0.226562|
|        4940|  5.5677e+01|  5.5677e+01|   -9.821976|  3.5196e-06|    0.226569|
|        4950|  5.5677e+01|  5.5677e+01|   -9.826438|  3.4852e-06|    0.226576|
|        4960|  5.5677e+01|  5.5677e+01|   -9.830897|  3.4510e-06|    0.226583|
|        4970|  5.5677e+01|  5.5677e+01|   -9.835352|  3.4172e-06|    0.226590|
|        4980|  5.5677e+01|  5.5677e+01|   -9.839803|  3.3837e-06|    0.226596|
|        4990|  5.5677e+01|  5.5677e+01|   -9.844249|  3.3504e-06|    0.226603|
|        5000|  5.5677e+01|  5.5677e+01|   -9.848694|  3.3174e-06|    0.226610|
+-----------------------------------------------------------------------+
|        File Writing Summary       |              Filename             |
+-----------------------------------------------------------------------+
|SU2 binary restart                 |restart_flow_G6.dat                |
|Paraview                           |flow_G6.vtu                        |
|Paraview surface                   |surface_flow_G6.vtu                |
+-----------------------------------------------------------------------+
+-----------------------------------------------------------------------------+
|  Inner_Iter|     Min CFL|     Max CFL|      rms[P]|  Cauchy[CD]|          CD|
+-----------------------------------------------------------------------------+
|        5010|  5.5677e+01|  5.5677e+01|   -9.853139|  3.2847e-06|    0.226616|
|        5020|  5.5677e+01|  5.5677e+01|   -9.857586|  3.2523e-06|    0.226623|
|        5030|  5.5677e+01|  5.5677e+01|   -9.862033|  3.2201e-06|    0.226629|
|        5040|  5.5677e+01|  5.5677e+01|   -9.866476|  3.1883e-06|    0.226636|
|        5050|  5.5677e+01|  5.5677e+01|   -9.870917|  3.1567e-06|    0.226642|
|        5060|  5.5677e+01|  5.5677e+01|   -9.875359|  3.1254e-06|    0.226648|
|        5070|  5.5677e+01|  5.5677e+01|   -9.879800|  3.0944e-06|    0.226655|
|        5080|  5.5677e+01|  5.5677e+01|   -9.884239|  3.0636e-06|    0.226661|
|        5090|  5.5677e+01|  5.5677e+01|   -9.888673|  3.0331e-06|    0.226667|
|        5100|  5.5677e+01|  5.5677e+01|   -9.893109|  3.0029e-06|    0.226673|
|        5110|  5.5677e+01|  5.5677e+01|   -9.897544|  2.9730e-06|    0.226679|
|        5120|  5.5677e+01|  5.5677e+01|   -9.901979|  2.9434e-06|    0.226685|
|        5130|  5.5677e+01|  5.5677e+01|   -9.906414|  2.9140e-06|    0.226690|
|        5140|  5.5677e+01|  5.5677e+01|   -9.910848|  2.8849e-06|    0.226696|
|        5150|  5.5677e+01|  5.5677e+01|   -9.915281|  2.8561e-06|    0.226702|
|        5160|  5.5677e+01|  5.5677e+01|   -9.919717|  2.8275e-06|    0.226708|
|        5170|  5.5677e+01|  5.5677e+01|   -9.924154|  2.7992e-06|    0.226713|
|        5180|  5.5677e+01|  5.5677e+01|   -9.928591|  2.7712e-06|    0.226719|
|        5190|  5.5677e+01|  5.5677e+01|   -9.933029|  2.7434e-06|    0.226724|
|        5200|  5.5677e+01|  5.5677e+01|   -9.937468|  2.7159e-06|    0.226730|
+-----------------------------------------------------------------------+
|        File Writing Summary       |              Filename             |
+-----------------------------------------------------------------------+
|SU2 binary restart                 |restart_flow_G6.dat                |
|Paraview                           |flow_G6.vtu                        |
|Paraview surface                   |surface_flow_G6.vtu                |
+-----------------------------------------------------------------------+
+-----------------------------------------------------------------------------+
|  Inner_Iter|     Min CFL|     Max CFL|      rms[P]|  Cauchy[CD]|          CD|
+-----------------------------------------------------------------------------+
|        5210|  5.5677e+01|  5.5677e+01|   -9.941910|  2.6887e-06|    0.226735|
|        5220|  5.5677e+01|  5.5677e+01|   -9.946352|  2.6617e-06|    0.226740|
|        5230|  5.5677e+01|  5.5677e+01|   -9.950796|  2.6350e-06|    0.226746|
|        5240|  5.5677e+01|  5.5677e+01|   -9.955241|  2.6085e-06|    0.226751|
|        5250|  5.5677e+01|  5.5677e+01|   -9.959685|  2.5823e-06|    0.226756|
|        5260|  5.5677e+01|  5.5677e+01|   -9.964130|  2.5564e-06|    0.226761|
|        5270|  5.5677e+01|  5.5677e+01|   -9.968577|  2.5307e-06|    0.226766|
|        5280|  5.5677e+01|  5.5677e+01|   -9.973030|  2.5052e-06|    0.226771|
|        5290|  5.5677e+01|  5.5677e+01|   -9.977490|  2.4800e-06|    0.226776|
|        5300|  5.5677e+01|  5.5677e+01|   -9.981956|  2.4551e-06|    0.226781|
|        5310|  5.5677e+01|  5.5677e+01|   -9.986424|  2.4304e-06|    0.226786|
|        5320|  5.5677e+01|  5.5677e+01|   -9.990891|  2.4060e-06|    0.226791|
|        5330|  5.5677e+01|  5.5677e+01|   -9.995356|  2.3818e-06|    0.226796|
|        5340|  5.5677e+01|  5.5677e+01|   -9.999821|  2.3578e-06|    0.226800|
|        5350|  5.5677e+01|  5.5677e+01|  -10.004289|  2.3341e-06|    0.226805|
|        5360|  5.5677e+01|  5.5677e+01|  -10.008760|  2.3107e-06|    0.226810|
|        5370|  5.5677e+01|  5.5677e+01|  -10.013235|  2.2874e-06|    0.226814|
|        5380|  5.5677e+01|  5.5677e+01|  -10.017714|  2.2644e-06|    0.226819|
|        5390|  5.5677e+01|  5.5677e+01|  -10.022196|  2.2417e-06|    0.226823|
|        5400|  5.5677e+01|  5.5677e+01|  -10.026682|  2.2192e-06|    0.226828|
+-----------------------------------------------------------------------+
|        File Writing Summary       |              Filename             |
+-----------------------------------------------------------------------+
|SU2 binary restart                 |restart_flow_G6.dat                |
|Paraview                           |flow_G6.vtu                        |
|Paraview surface                   |surface_flow_G6.vtu                |
+-----------------------------------------------------------------------+
+-----------------------------------------------------------------------------+
|  Inner_Iter|     Min CFL|     Max CFL|      rms[P]|  Cauchy[CD]|          CD|
+-----------------------------------------------------------------------------+
|        5410|  5.5677e+01|  5.5677e+01|  -10.031169|  2.1969e-06|    0.226832|
|        5420|  5.5677e+01|  5.5677e+01|  -10.035658|  2.1748e-06|    0.226837|
|        5430|  5.5677e+01|  5.5677e+01|  -10.040146|  2.1529e-06|    0.226841|
|        5440|  5.5677e+01|  5.5677e+01|  -10.044634|  2.1313e-06|    0.226845|
|        5450|  5.5677e+01|  5.5677e+01|  -10.049123|  2.1099e-06|    0.226849|
|        5460|  5.5677e+01|  5.5677e+01|  -10.053615|  2.0887e-06|    0.226854|
|        5470|  5.5677e+01|  5.5677e+01|  -10.058109|  2.0678e-06|    0.226858|
|        5480|  5.5677e+01|  5.5677e+01|  -10.062606|  2.0470e-06|    0.226862|
|        5490|  5.5677e+01|  5.5677e+01|  -10.067107|  2.0265e-06|    0.226866|
|        5500|  5.5677e+01|  5.5677e+01|  -10.071611|  2.0062e-06|    0.226870|
|        5510|  5.5677e+01|  5.5677e+01|  -10.076117|  1.9861e-06|    0.226874|
|        5520|  5.5677e+01|  5.5677e+01|  -10.080627|  1.9662e-06|    0.226878|
|        5530|  5.5677e+01|  5.5677e+01|  -10.085136|  1.9465e-06|    0.226882|
|        5540|  5.5677e+01|  5.5677e+01|  -10.089644|  1.9270e-06|    0.226886|
|        5550|  5.5677e+01|  5.5677e+01|  -10.094156|  1.9077e-06|    0.226889|
|        5560|  5.5677e+01|  5.5677e+01|  -10.098673|  1.8886e-06|    0.226893|
|        5570|  5.5677e+01|  5.5677e+01|  -10.103197|  1.8697e-06|    0.226897|
|        5580|  5.5677e+01|  5.5677e+01|  -10.107725|  1.8510e-06|    0.226901|
|        5590|  5.5677e+01|  5.5677e+01|  -10.112253|  1.8325e-06|    0.226904|
|        5600|  5.5677e+01|  5.5677e+01|  -10.116780|  1.8142e-06|    0.226908|
+-----------------------------------------------------------------------+
|        File Writing Summary       |              Filename             |
+-----------------------------------------------------------------------+
|SU2 binary restart                 |restart_flow_G6.dat                |
|Paraview                           |flow_G6.vtu                        |
|Paraview surface                   |surface_flow_G6.vtu                |
+-----------------------------------------------------------------------+
+-----------------------------------------------------------------------------+
|  Inner_Iter|     Min CFL|     Max CFL|      rms[P]|  Cauchy[CD]|          CD|
+-----------------------------------------------------------------------------+
|        5610|  5.5677e+01|  5.5677e+01|  -10.121304|  1.7961e-06|    0.226912|
|        5620|  5.5677e+01|  5.5677e+01|  -10.125832|  1.7782e-06|    0.226915|
|        5630|  5.5677e+01|  5.5677e+01|  -10.130364|  1.7604e-06|    0.226919|
|        5640|  5.5677e+01|  5.5677e+01|  -10.134900|  1.7429e-06|    0.226922|
|        5650|  5.5677e+01|  5.5677e+01|  -10.139439|  1.7255e-06|    0.226926|
|        5660|  5.5677e+01|  5.5677e+01|  -10.143980|  1.7082e-06|    0.226929|
|        5670|  5.5677e+01|  5.5677e+01|  -10.148522|  1.6912e-06|    0.226932|
|        5680|  5.5677e+01|  5.5677e+01|  -10.153067|  1.6744e-06|    0.226936|
|        5690|  5.5677e+01|  5.5677e+01|  -10.157610|  1.6577e-06|    0.226939|
|        5700|  5.5677e+01|  5.5677e+01|  -10.162152|  1.6412e-06|    0.226942|
|        5710|  5.5677e+01|  5.5677e+01|  -10.166695|  1.6248e-06|    0.226946|
|        5720|  5.5677e+01|  5.5677e+01|  -10.171237|  1.6086e-06|    0.226949|
|        5730|  5.5677e+01|  5.5677e+01|  -10.175778|  1.5926e-06|    0.226952|
|        5740|  5.5677e+01|  5.5677e+01|  -10.180321|  1.5768e-06|    0.226955|
|        5750|  5.5677e+01|  5.5677e+01|  -10.184867|  1.5611e-06|    0.226958|
|        5760|  5.5677e+01|  5.5677e+01|  -10.189413|  1.5455e-06|    0.226962|
|        5770|  5.5677e+01|  5.5677e+01|  -10.193958|  1.5301e-06|    0.226965|
|        5780|  5.5677e+01|  5.5677e+01|  -10.198505|  1.5149e-06|    0.226968|
|        5790|  5.5677e+01|  5.5677e+01|  -10.203050|  1.4999e-06|    0.226971|
|        5800|  5.5677e+01|  5.5677e+01|  -10.207595|  1.4849e-06|    0.226974|
+-----------------------------------------------------------------------+
|        File Writing Summary       |              Filename             |
+-----------------------------------------------------------------------+
|SU2 binary restart                 |restart_flow_G6.dat                |
|Paraview                           |flow_G6.vtu                        |
|Paraview surface                   |surface_flow_G6.vtu                |
+-----------------------------------------------------------------------+
+-----------------------------------------------------------------------------+
|  Inner_Iter|     Min CFL|     Max CFL|      rms[P]|  Cauchy[CD]|          CD|
+-----------------------------------------------------------------------------+
|        5810|  5.5677e+01|  5.5677e+01|  -10.212139|  1.4702e-06|    0.226977|
|        5820|  5.5677e+01|  5.5677e+01|  -10.216684|  1.4556e-06|    0.226979|
|        5830|  5.5677e+01|  5.5677e+01|  -10.221230|  1.4411e-06|    0.226982|
|        5840|  5.5677e+01|  5.5677e+01|  -10.225774|  1.4267e-06|    0.226985|
|        5850|  5.5677e+01|  5.5677e+01|  -10.230318|  1.4126e-06|    0.226988|
|        5860|  5.5677e+01|  5.5677e+01|  -10.234861|  1.3985e-06|    0.226991|
|        5870|  5.5677e+01|  5.5677e+01|  -10.239404|  1.3846e-06|    0.226994|
|        5880|  5.5677e+01|  5.5677e+01|  -10.243946|  1.3708e-06|    0.226996|
|        5890|  5.5677e+01|  5.5677e+01|  -10.248486|  1.3572e-06|    0.226999|
|        5900|  5.5677e+01|  5.5677e+01|  -10.253025|  1.3437e-06|    0.227002|
|        5910|  5.5677e+01|  5.5677e+01|  -10.257563|  1.3303e-06|    0.227005|
|        5920|  5.5677e+01|  5.5677e+01|  -10.262100|  1.3171e-06|    0.227007|
|        5930|  5.5677e+01|  5.5677e+01|  -10.266637|  1.3040e-06|    0.227010|
|        5940|  5.5677e+01|  5.5677e+01|  -10.271172|  1.2910e-06|    0.227012|
|        5950|  5.5677e+01|  5.5677e+01|  -10.275706|  1.2781e-06|    0.227015|
|        5960|  5.5677e+01|  5.5677e+01|  -10.280238|  1.2654e-06|    0.227017|
|        5970|  5.5677e+01|  5.5677e+01|  -10.284770|  1.2528e-06|    0.227020|
|        5980|  5.5677e+01|  5.5677e+01|  -10.289300|  1.2403e-06|    0.227022|
|        5990|  5.5677e+01|  5.5677e+01|  -10.293828|  1.2280e-06|    0.227025|
|        6000|  5.5677e+01|  5.5677e+01|  -10.298356|  1.2157e-06|    0.227027|
+-----------------------------------------------------------------------+
|        File Writing Summary       |              Filename             |
+-----------------------------------------------------------------------+
|SU2 binary restart                 |restart_flow_G6.dat                |
|Paraview                           |flow_G6.vtu                        |
|Paraview surface                   |surface_flow_G6.vtu                |
+-----------------------------------------------------------------------+
+-----------------------------------------------------------------------------+
|  Inner_Iter|     Min CFL|     Max CFL|      rms[P]|  Cauchy[CD]|          CD|
+-----------------------------------------------------------------------------+
|        6010|  5.5677e+01|  5.5677e+01|  -10.302882|  1.2036e-06|    0.227030|
|        6020|  5.5677e+01|  5.5677e+01|  -10.307406|  1.1916e-06|    0.227032|
|        6030|  5.5677e+01|  5.5677e+01|  -10.311930|  1.1797e-06|    0.227035|
|        6040|  5.5677e+01|  5.5677e+01|  -10.316452|  1.1680e-06|    0.227037|
|        6050|  5.5677e+01|  5.5677e+01|  -10.320972|  1.1563e-06|    0.227039|
|        6060|  5.5677e+01|  5.5677e+01|  -10.325491|  1.1448e-06|    0.227042|
|        6070|  5.5677e+01|  5.5677e+01|  -10.330008|  1.1334e-06|    0.227044|
|        6080|  5.5677e+01|  5.5677e+01|  -10.334523|  1.1220e-06|    0.227046|
|        6090|  5.5677e+01|  5.5677e+01|  -10.339036|  1.1108e-06|    0.227048|
|        6100|  5.5677e+01|  5.5677e+01|  -10.343549|  1.0997e-06|    0.227051|
|        6110|  5.5677e+01|  5.5677e+01|  -10.348059|  1.0887e-06|    0.227053|
|        6120|  5.5677e+01|  5.5677e+01|  -10.352568|  1.0779e-06|    0.227055|
|        6130|  5.5677e+01|  5.5677e+01|  -10.357074|  1.0671e-06|    0.227057|
|        6140|  5.5677e+01|  5.5677e+01|  -10.361577|  1.0564e-06|    0.227059|
|        6150|  5.5677e+01|  5.5677e+01|  -10.366082|  1.0458e-06|    0.227061|
|        6160|  5.5677e+01|  5.5677e+01|  -10.370587|  1.0354e-06|    0.227063|
|        6170|  5.5677e+01|  5.5677e+01|  -10.375090|  1.0250e-06|    0.227065|
|        6180|  5.5677e+01|  5.5677e+01|  -10.379590|  1.0147e-06|    0.227067|
|        6190|  5.5677e+01|  5.5677e+01|  -10.384088|  1.0045e-06|    0.227069|
|        6195|  5.5677e+01|  5.5677e+01|  -10.386336|  9.9950e-07|    0.227070|

----------------------------- Solver Exit -------------------------------
All convergence criteria satisfied.
+-----------------------------------------------------------------------+
|      Convergence Field     |     Value    |   Criterion  |  Converged |
+-----------------------------------------------------------------------+
|                      rms[P]|      -10.3863|          < -9|         Yes|
|                  Cauchy[CD]|   9.99498e-07|       < 1e-06|         Yes|
+-----------------------------------------------------------------------+
-------------------------------------------------------------------------
+-----------------------------------------------------------------------+
|        File Writing Summary       |              Filename             |
+-----------------------------------------------------------------------+
|SU2 binary restart                 |restart_flow_G6.dat                |
|Paraview                           |flow_G6.vtu                        |
|Paraview surface                   |surface_flow_G6.vtu                |
+-----------------------------------------------------------------------+

------------------------- Solver Postprocessing -------------------------
Deleted CNumerics container.
Deleted CIntegration container.
Deleted CSolver container.
Deleted CIteration container.
Deleted CInterface container.
Deleted CGeometry container.
Deleted CFreeFormDefBox class.
Deleted CSurfaceMovement class.
Deleted CVolumetricMovement class.
Deleted CConfig container.
Deleted nInst container.
Deleted COutput class.
-------------------------------------------------------------------------

------------------------- Exit Success (SU2_CFD) ------------------------

