
-------------------------------------------------------------------------
|    ___ _   _ ___                                                      |
|   / __| | | |_  )   Release 7.4.0 "Blackbird"                         |
|   \__ \ |_| |/ /                                                      |
|   |___/\___//___|   Suite (Computational Fluid Dynamics Code)         |
|                                                                       |
-------------------------------------------------------------------------
| SU2 Project Website: https://su2code.github.io                        |
|                                                                       |
| The SU2 Project is maintained by the SU2 Foundation                   |
| (http://su2foundation.org)                                            |
-------------------------------------------------------------------------
| Copyright 2012-2022, SU2 Contributors                                 |
|                                                                       |
| SU2 is free software; you can redistribute it and/or                  |
| modify it under the terms of the GNU Lesser General Public            |
| License as published by the Free Software Foundation; either          |
| version 2.1 of the License, or (at your option) any later version.    |
|                                                                       |
| SU2 is distributed in the hope that it will be useful,                |
| but WITHOUT ANY WARRANTY; without even the implied warranty of        |
| MERCHANTABILITY or FITNESS FOR A PARTICULAR PURPOSE. See the GNU      |
| Lesser General Public License for more details.                       |
|                                                                       |
| You should have received a copy of the GNU Lesser General Public      |
| License along with SU2. If not, see <http://www.gnu.org/licenses/>.   |
-------------------------------------------------------------------------

Parsing config file for zone 0

----------------- Physical Case Definition ( Zone 0 ) -------------------
Incompressible RANS equations.
Turbulence model: Spalart-Allmaras-noft2
Hybrid RANS/LES: No Hybrid RANS/LES
Reading and writing binary SU2 native restart files.
Read flow solution from: ../../../O1/caseG6/cfdG6/restart_flow_G6.dat.
Non-Dimensional simulation using intialization values.
The reference area is 1 m^2.
The semi-span will be computed using the max y(3D) value.
The reference length is 1.00898 m.
Reference origin for moment evaluation is (-0.756, 0, 0).
Surface(s) where the force coefficients are evaluated: AIRFOIL.

Surface(s) plotted in the output file: AIRFOIL.
Input mesh file name: ../meshG6/meshG6.su2

--------------- Space Numerical Integration ( Zone 0 ) ------------------
Flux difference splitting (FDS) upwind scheme for the flow inviscid terms.
Second order integration in space, with slope limiter.
Venkatakrishnan slope-limiting method, with constant: 0.0388.
The reference element size is: 1. 
Average of gradients with correction (viscous flow terms).
Average of gradients with correction (viscous turbulence terms).
Gradient for upwind reconstruction: unweighted Least-Squares.
Gradient for viscous and source terms: Green-Gauss.

--------------- Time Numerical Integration  ( Zone 0 ) ------------------
Local time stepping (steady state simulation).
Euler implicit method for the flow equations.
FGMRES is used for solving the linear system.
Using a ILU(0) preconditioning.
Convergence criteria of the linear solver: 1e-06.
Max number of linear iterations: 10.
CFL adaptation. Factor down: 0.1, factor up: 1.2,
                lower limit: 1, upper limit: 1000,
                acceptable linear residual: 0.001.
Courant-Friedrichs-Lewy number:        2
Euler implicit time integration for the turbulence model.

------------------ Convergence Criteria  ( Zone 0 ) ---------------------
Maximum number of solver subiterations: 9999.
Begin convergence monitoring at iteration 10.
Residual minimum value: 1e-9.
Cauchy series min. value: 1e-06.
Number of Cauchy elements: 250.
Begin windowed time average at iteration 0.

-------------------- Output Information ( Zone 0 ) ----------------------
File writing frequency: 
+------------------------------------+
|                     File| Frequency|
+------------------------------------+
|                  RESTART|       200|
|                 PARAVIEW|       200|
|         SURFACE_PARAVIEW|       200|
+------------------------------------+
Writing the convergence history file every 1 inner iterations.
Writing the screen convergence history every 10 inner iterations.
The tabular file format is CSV (.csv).
Convergence history file name: history_G6.
Forces breakdown file name: forces_breakdown.dat.
Surface file name: surface_flow_G6.
Volume file name: flow_G6.
Restart file name: restart_flow_G6.dat.

------------- Config File Boundary Information ( Zone 0 ) ---------------
+-----------------------------------------------------------------------+
|                        Marker Type|                        Marker Name|
+-----------------------------------------------------------------------+
|                          Far-field|                           FARFIELD|
+-----------------------------------------------------------------------+
|                     Heat flux wall|                            AIRFOIL|
+-----------------------------------------------------------------------+

-------------------- Output Preprocessing ( Zone 0 ) --------------------

WARNING: SURFACE_PRESSURE_DROP can only be computed for at least 2 surfaces (outlet, inlet, ...)

Screen output fields: INNER_ITER, MIN_CFL, MAX_CFL, RMS_PRESSURE, CAUCHY_DRAG, DRAG
History output group(s): INNER_ITER, MIN_CFL, MAX_CFL, RMS_RES, LIFT, DRAG, MOMENT_Z, CAUCHY
Convergence field(s): RMS_PRESSURE, DRAG
Warning: No (valid) fields chosen for time convergence monitoring. Time convergence monitoring inactive.
Volume output fields: COORDINATES, SOLUTION, PRIMITIVE, RESIDUAL, MESH_QUALITY

------------------- Geometry Preprocessing ( Zone 0 ) -------------------
Two dimensional problem.
519958 grid points before partitioning.
518400 volume elements before partitioning.
2 surface markers.
868 boundary elements in index 0 (Marker = AIRFOIL).
2248 boundary elements in index 1 (Marker = FARFIELD).
Executing the partitioning functions.
Building the graph adjacency structure.
Calling ParMETIS... graph partitioning complete (5042 edge cuts).
Distributing ParMETIS coloring.
Rebalancing vertices.
Rebalancing volume element connectivity.
Rebalancing markers and surface elements.
530066 vertices including ghost points. 
523442 interior elements including halo cells. 
523442 quadrilaterals.
Establishing MPI communication patterns.
Setting point connectivity.
Renumbering points (Reverse Cuthill McKee Ordering).
Recomputing point connectivity.
Setting element connectivity.
Checking the numerical grid orientation.
All volume elements are correctly orientend.
There has been a re-orientation of 1564 LINE surface elements.
Identifying edges and vertices.
Setting the control volume structure.
Area of the computational grid: 102806.
Searching for the closest normal neighbors to the surfaces.
Storing a mapping from global to local point index.
Compute the surface curvature.
Max K: 2.29749e+06. Mean K: 6302.15. Standard deviation K: 82954.5.
Checking for periodicity.
Computing mesh quality statistics for the dual control volumes.
+--------------------------------------------------------------+
|           Mesh Quality Metric|        Minimum|        Maximum|
+--------------------------------------------------------------+
|    Orthogonality Angle (deg.)|        73.7004|             90|
|     CV Face Area Aspect Ratio|        1.00001|    8.13327e+06|
|           CV Sub-Volume Ratio|              1|        1213.46|
+--------------------------------------------------------------+
Finding max control volume width.
Communicating number of neighbors.
Wetted area = 2.05974 m.
Area projection in the x-plane = 0.121116 m, y-plane = 1.00883 m.
Max. coordinate in the x-direction = 1.00898 m, y-direction = 0.0759843 m.
Min. coordinate in the x-direction = 2.43301e-06 m, y-direction = -0.0451351 m.
Computing wall distances.

-------------------- Solver Preprocessing ( Zone 0 ) --------------------
 Warning: There is no restart file (flow.meta).
 Computation will continue without updating metadata parameters.
Incompressible flow: rho_ref, vel_ref, and temp_ref
are based on the initial values, p_ref = rho_ref*vel_ref^2.
Force coefficients computed using initial values.
The reference area for force coeffs. is 1 m^2.
The reference length for force coeffs. is 1.00898 m.
The pressure is decomposed into thermodynamic and dynamic components.
The initial value of the dynamic pressure is 0.
Mach number: 0.0276747, computed using the Bulk modulus.
For external flows, the initial state is imposed at the far-field.
Angle of attack (deg): 14, computed using the initial velocity.
Side slip angle (deg): 0, computed using the initial velocity.
Reynolds number per meter: 594999, computed using initial values.
Reynolds number is a byproduct of inputs only (not used internally).
SI units only. The grid should be dimensional (meters).
No energy equation.

-- Models:
+------------------------------------------------------------------------------+
|          Viscosity Model|        Conductivity Model|              Fluid Model|
+------------------------------------------------------------------------------+
|       CONSTANT_VISCOSITY|          CONSTANT_PRANDTL|         CONSTANT_DENSITY|
+------------------------------------------------------------------------------+
-- Fluid properties:
+------------------------------------------------------------------------------+
|                  Name|    Dim. value|    Ref. value|      Unit|Non-dim. value|
+------------------------------------------------------------------------------+
|             Viscosity|      1.92e-05|        11.424|   N.s/m^2|   1.68067e-06|
+------------------------------------------------------------------------------+
|        Prandtl (Lam.)|             -|             -|         -|          0.72|
|       Prandtl (Turb.)|             -|             -|         -|           0.9|
+------------------------------------------------------------------------------+
|          Bulk Modulus|        142000|             1|        Pa|        142000|
+------------------------------------------------------------------------------+
-- Initial and free-stream conditions:
+------------------------------------------------------------------------------+
|                  Name|    Dim. value|    Ref. value|      Unit|Non-dim. value|
+------------------------------------------------------------------------------+
|      Dynamic Pressure|             0|       108.756|        Pa|             0|
|        Total Pressure|       54.3781|       108.756|        Pa|           0.5|
|               Density|           1.2|           1.2|    kg/m^3|             1|
|            Velocity-X|        9.2372|       9.51999|       m/s|      0.970296|
|            Velocity-Y|        2.3031|       9.51999|       m/s|      0.241923|
|    Velocity Magnitude|       9.51999|       9.51999|       m/s|             1|
+------------------------------------------------------------------------------+
|             Viscosity|      1.92e-05|        11.424|   N.s/m^2|   1.68067e-06|
|          Conductivity|             -|       3.59312|   W/m^2.K|             -|
|     Turb. Kin. Energy|       1.35945|       90.6301|   m^2/s^2|         0.015|
|     Spec. Dissipation|       8496.58|       9.51999|       1/s|       892.499|
+------------------------------------------------------------------------------+
|           Mach Number|             -|             -|         -|     0.0276747|
|       Reynolds Number|             -|             -|         -|        594999|
+------------------------------------------------------------------------------+
Initialize Jacobian structure (Navier-Stokes). MG level: 0.
Initialize Jacobian structure (SA model).

------------------- Numerics Preprocessing ( Zone 0 ) -------------------

----------------- Integration Preprocessing ( Zone 0 ) ------------------

------------------- Iteration Preprocessing ( Zone 0 ) ------------------
Euler/Navier-Stokes/RANS fluid iteration.

------------------------------ Begin Solver -----------------------------

Simulation Run using the Single-zone Driver
+-----------------------------------------------------------------------------+
|  Inner_Iter|     Min CFL|     Max CFL|      rms[P]|  Cauchy[CD]|          CD|
+-----------------------------------------------------------------------------+
|           0|  2.4000e+00|  2.4000e+00|   -6.575129|  1.0000e+00|    0.096632|
|          10|  1.4860e+01|  1.4860e+01|   -6.585597|  7.5883e-05|    0.094735|
|          20|  7.6675e+00|  7.6675e+00|   -6.922705|  8.0093e-04|    0.076609|
|          30|  4.7475e+01|  4.7475e+01|   -6.981685|  1.4072e-03|    0.061453|
|          40|  2.4496e+01|  2.4496e+01|   -7.022636|  1.6091e-03|    0.056404|
|          50|  1.2639e+01|  1.2639e+01|   -6.982969|  1.6638e-03|    0.055692|
|          60|  6.5217e+00|  6.5217e+00|   -6.959599|  1.7505e-03|    0.057858|
|          70|  4.0381e+01|  4.0381e+01|   -6.963147|  1.7795e-03|    0.058584|
|          80|  2.0836e+01|  2.0836e+01|   -6.981346|  1.7888e-03|    0.058816|
|          90|  5.1845e+01|  5.1845e+01|   -6.975323|  1.7977e-03|    0.058886|
|         100|  2.6751e+01|  2.6751e+01|   -7.074819|  1.8194e-03|    0.058344|
|         110|  1.3803e+01|  1.3803e+01|   -7.096744|  1.8723e-03|    0.057022|
|         120|  7.1220e+00|  7.1220e+00|   -7.035229|  1.8981e-03|    0.056375|
|         130|  4.4098e+01|  4.4098e+01|   -7.083616|  1.9104e-03|    0.056681|
|         140|  2.2754e+01|  2.2754e+01|   -7.129705|  1.9488e-03|    0.057640|
|         150|  6.7942e+00|  6.7942e+00|   -7.114181|  2.0051e-03|    0.059046|
|         160|  4.2068e+01|  4.2068e+01|   -7.157884|  2.0094e-03|    0.059016|
|         170|  2.1706e+01|  2.1706e+01|   -7.193021|  2.0345e-03|    0.058388|
|         180|  6.4814e+00|  6.4814e+00|   -7.170575|  2.1086e-03|    0.056534|
|         190|  4.0131e+01|  4.0131e+01|   -7.193605|  2.1424e-03|    0.055692|
|         200|  2.0707e+01|  2.0707e+01|   -7.227864|  2.1800e-03|    0.054750|
+-----------------------------------------------------------------------+
|        File Writing Summary       |              Filename             |
+-----------------------------------------------------------------------+
|SU2 binary restart                 |restart_flow_G6.dat                |
|Paraview                           |flow_G6.vtu                        |
|Paraview surface                   |surface_flow_G6.vtu                |
+-----------------------------------------------------------------------+
+-----------------------------------------------------------------------------+
|  Inner_Iter|     Min CFL|     Max CFL|      rms[P]|  Cauchy[CD]|          CD|
+-----------------------------------------------------------------------------+
|         210|  1.0684e+01|  1.0684e+01|   -7.213050|  2.2089e-03|    0.054027|
|         220|  5.5128e+00|  5.5128e+00|   -7.202502|  2.2260e-03|    0.053600|
|         230|  3.4134e+01|  3.4134e+01|   -7.223433|  2.2278e-03|    0.053577|
|         240|  1.7612e+01|  1.7612e+01|   -7.247585|  2.2361e-03|    0.053785|
|         250|  4.3825e+01|  4.3825e+01|   -7.236066|  2.2755e-03|    0.054772|
|         260|  2.2613e+01|  2.2613e+01|   -7.224787|  2.2249e-03|    0.055402|
|         270|  4.6890e+01|  4.6890e+01|   -7.243688|  1.5310e-03|    0.056181|
|         280|  1.1668e+01|  1.1668e+01|   -7.242163|  9.3999e-04|    0.055801|
|         290|  6.0203e+00|  6.0203e+00|   -7.245475|  7.7574e-04|    0.054858|
|         300|  3.7276e+01|  3.7276e+01|   -7.262380|  7.5044e-04|    0.054123|
|         310|  4.4731e+01|  4.4731e+01|   -7.329425|  7.2592e-04|    0.052570|
|         320|  2.3080e+01|  2.3080e+01|   -7.320298|  7.0327e-04|    0.052410|
|         330|  1.1909e+01|  1.1909e+01|   -7.310517|  6.9905e-04|    0.052513|
|         340|  5.1206e+01|  5.1206e+01|   -7.316536|  7.1231e-04|    0.053068|
|         350|  2.6421e+01|  2.6421e+01|   -7.324823|  7.0448e-04|    0.053414|
|         360|  4.5656e+01|  4.5656e+01|   -7.336238|  6.6805e-04|    0.053824|
|         370|  4.5656e+01|  4.5656e+01|   -7.327669|  6.6084e-04|    0.053357|
|         380|  9.4672e+00|  9.4672e+00|   -7.337107|  6.6596e-04|    0.052922|
|         390|  4.8849e+00|  4.8849e+00|   -7.347259|  6.3858e-04|    0.052647|
|         400|  3.0246e+01|  3.0246e+01|   -7.348150|  5.8647e-04|    0.052544|
+-----------------------------------------------------------------------+
|        File Writing Summary       |              Filename             |
+-----------------------------------------------------------------------+
|SU2 binary restart                 |restart_flow_G6.dat                |
|Paraview                           |flow_G6.vtu                        |
|Paraview surface                   |surface_flow_G6.vtu                |
+-----------------------------------------------------------------------+
+-----------------------------------------------------------------------------+
|  Inner_Iter|     Min CFL|     Max CFL|      rms[P]|  Cauchy[CD]|          CD|
+-----------------------------------------------------------------------------+
|         410|  7.5261e+00|  7.5261e+00|   -7.333372|  5.9071e-04|    0.052330|
|         420|  4.6600e+01|  4.6600e+01|   -7.333910|  5.7079e-04|    0.052200|
|         430|  4.6600e+01|  4.6600e+01|   -7.355525|  5.1454e-04|    0.051753|
|         440|  4.6600e+01|  4.6600e+01|   -7.403200|  5.0710e-04|    0.051096|
|         450|  4.6600e+01|  4.6600e+01|   -7.428103|  4.9319e-04|    0.050502|
|         460|  4.6600e+01|  4.6600e+01|   -7.426112|  4.7106e-04|    0.050345|
|         470|  4.6600e+01|  4.6600e+01|   -7.415595|  4.5925e-04|    0.050477|
|         480|  4.6600e+01|  4.6600e+01|   -7.413942|  4.6259e-04|    0.050374|
|         490|  1.3915e+01|  1.3915e+01|   -7.435483|  4.6266e-04|    0.050165|
|         500|  7.1797e+00|  7.1797e+00|   -7.459809|  4.3530e-04|    0.049862|
|         510|  4.4455e+01|  4.4455e+01|   -7.482599|  4.2087e-04|    0.049592|
|         520|  2.2938e+01|  2.2938e+01|   -7.498690|  4.0086e-04|    0.049313|
|         530|  1.1835e+01|  1.1835e+01|   -7.491774|  3.9766e-04|    0.049013|
|         540|  6.1067e+00|  6.1067e+00|   -7.462213|  3.7261e-04|    0.048696|
|         550|  3.7811e+01|  3.7811e+01|   -7.447244|  3.4941e-04|    0.048541|
|         560|  4.5374e+01|  4.5374e+01|   -7.447023|  2.9501e-04|    0.048348|
|         570|  2.3412e+01|  2.3412e+01|   -7.475780|  2.8887e-04|    0.048348|
|         580|  4.8547e+01|  4.8547e+01|   -7.537059|  2.8483e-04|    0.048356|
|         590|  4.8547e+01|  4.8547e+01|   -7.541277|  2.7119e-04|    0.048142|
|         600|  4.8547e+01|  4.8547e+01|   -7.518848|  2.7274e-04|    0.047758|
+-----------------------------------------------------------------------+
|        File Writing Summary       |              Filename             |
+-----------------------------------------------------------------------+
|SU2 binary restart                 |restart_flow_G6.dat                |
|Paraview                           |flow_G6.vtu                        |
|Paraview surface                   |surface_flow_G6.vtu                |
+-----------------------------------------------------------------------+
+-----------------------------------------------------------------------------+
|  Inner_Iter|     Min CFL|     Max CFL|      rms[P]|  Cauchy[CD]|          CD|
+-----------------------------------------------------------------------------+
|         610|  4.8547e+01|  4.8547e+01|   -7.534309|  2.6885e-04|    0.047443|
|         620|  4.8547e+01|  4.8547e+01|   -7.576041|  2.5941e-04|    0.047213|
|         630|  4.8547e+01|  4.8547e+01|   -7.613497|  2.5253e-04|    0.046950|
|         640|  4.8547e+01|  4.8547e+01|   -7.600913|  2.5378e-04|    0.046643|
|         650|  4.8547e+01|  4.8547e+01|   -7.593791|  2.5770e-04|    0.046442|
|         660|  4.8547e+01|  4.8547e+01|   -7.637391|  2.5086e-04|    0.046443|
|         670|  2.0874e+01|  2.0874e+01|   -7.668253|  2.4673e-04|    0.046470|
|         680|  1.0771e+01|  1.0771e+01|   -7.691512|  2.2984e-04|    0.046495|
|         690|  4.6312e+01|  4.6312e+01|   -7.706885|  2.0443e-04|    0.046477|
|         700|  4.6312e+01|  4.6312e+01|   -7.695449|  1.8798e-04|    0.046295|
|         710|  4.6312e+01|  4.6312e+01|   -7.661062|  1.9188e-04|    0.046027|
|         720|  4.6312e+01|  4.6312e+01|   -7.686227|  1.9389e-04|    0.045846|
|         730|  4.6312e+01|  4.6312e+01|   -7.744791|  1.9129e-04|    0.045784|
|         740|  4.6312e+01|  4.6312e+01|   -7.714242|  1.8434e-04|    0.045748|
|         750|  4.6312e+01|  4.6312e+01|   -7.686919|  1.7474e-04|    0.045685|
|         760|  8.0027e+00|  8.0027e+00|   -7.725929|  1.6579e-04|    0.045639|
|         770|  4.9550e+01|  4.9550e+01|   -7.801229|  1.5502e-04|    0.045629|
|         780|  2.5567e+01|  2.5567e+01|   -7.847637|  1.4305e-04|    0.045629|
|         790|  1.3192e+01|  1.3192e+01|   -7.861710|  1.3067e-04|    0.045636|
|         800|  4.7269e+01|  4.7269e+01|   -7.810509|  1.2483e-04|    0.045645|
+-----------------------------------------------------------------------+
|        File Writing Summary       |              Filename             |
+-----------------------------------------------------------------------+
|SU2 binary restart                 |restart_flow_G6.dat                |
|Paraview                           |flow_G6.vtu                        |
|Paraview surface                   |surface_flow_G6.vtu                |
+-----------------------------------------------------------------------+
+-----------------------------------------------------------------------------+
|  Inner_Iter|     Min CFL|     Max CFL|      rms[P]|  Cauchy[CD]|          CD|
+-----------------------------------------------------------------------------+
|         810|  1.4115e+01|  1.4115e+01|   -7.793357|  1.1742e-04|    0.045637|
|         820|  7.2828e+00|  7.2828e+00|   -7.761078|  1.1808e-04|    0.045614|
|         830|  4.5093e+01|  4.5093e+01|   -7.807865|  1.1822e-04|    0.045586|
|         840|  2.3267e+01|  2.3267e+01|   -7.842779|  1.1106e-04|    0.045551|
|         850|  1.2005e+01|  1.2005e+01|   -7.859861|  9.7717e-05|    0.045500|
|         860|  6.1945e+00|  6.1945e+00|   -7.867724|  8.6920e-05|    0.045455|
|         870|  3.8354e+01|  3.8354e+01|   -7.881459|  7.8636e-05|    0.045432|
|         880|  1.9790e+01|  1.9790e+01|   -7.876548|  6.9077e-05|    0.045408|
|         890|  4.9244e+01|  4.9244e+01|   -7.836484|  5.7852e-05|    0.045382|
|         900|  1.2253e+01|  1.2253e+01|   -7.831584|  5.0108e-05|    0.045375|
|         910|  6.3225e+00|  6.3225e+00|   -7.837727|  4.8515e-05|    0.045377|
|         920|  3.9147e+01|  3.9147e+01|   -7.865607|  4.7552e-05|    0.045380|
|         930|  2.0199e+01|  2.0199e+01|   -7.908201|  4.6727e-05|    0.045385|
|         940|  1.0422e+01|  1.0422e+01|   -7.884625|  4.6315e-05|    0.045396|
|         950|  5.3777e+00|  5.3777e+00|   -7.951526|  3.9701e-05|    0.045413|
|         960|  3.3297e+01|  3.3297e+01|   -7.963584|  2.9476e-05|    0.045425|
|         970|  1.7181e+01|  1.7181e+01|   -7.943332|  2.3080e-05|    0.045447|
|         980|  8.8648e+00|  8.8648e+00|   -7.844509|  2.1738e-05|    0.045475|
|         990|  5.4889e+01|  5.4889e+01|   -7.907479|  2.1081e-05|    0.045494|
|        1000|  2.8321e+01|  2.8321e+01|   -7.932564|  1.8972e-05|    0.045505|
+-----------------------------------------------------------------------+
|        File Writing Summary       |              Filename             |
+-----------------------------------------------------------------------+
|SU2 binary restart                 |restart_flow_G6.dat                |
|Paraview                           |flow_G6.vtu                        |
|Paraview surface                   |surface_flow_G6.vtu                |
+-----------------------------------------------------------------------+
+-----------------------------------------------------------------------------+
|  Inner_Iter|     Min CFL|     Max CFL|      rms[P]|  Cauchy[CD]|          CD|
+-----------------------------------------------------------------------------+
|        1010|  1.4613e+01|  1.4613e+01|   -7.959907|  1.7383e-05|    0.045511|
|        1020|  6.2834e+00|  6.2834e+00|   -7.951744|  1.7313e-05|    0.045503|
|        1030|  3.8905e+01|  3.8905e+01|   -7.977508|  1.7650e-05|    0.045493|
|        1040|  2.0074e+01|  2.0074e+01|   -7.990366|  1.8025e-05|    0.045477|
|        1050|  4.9951e+01|  4.9951e+01|   -7.980449|  1.8937e-05|    0.045445|
|        1060|  4.9951e+01|  4.9951e+01|   -7.970843|  1.9220e-05|    0.045432|
|        1070|  4.9951e+01|  4.9951e+01|   -7.979480|  1.9623e-05|    0.045466|
|        1080|  4.9951e+01|  4.9951e+01|   -8.022054|  2.1095e-05|    0.045531|
|        1090|  4.9951e+01|  4.9951e+01|   -8.035848|  2.2482e-05|    0.045600|
|        1100|  4.9951e+01|  4.9951e+01|   -8.035340|  2.2538e-05|    0.045653|
|        1110|  4.9951e+01|  4.9951e+01|   -8.079467|  2.1911e-05|    0.045682|
|        1120|  4.9951e+01|  4.9951e+01|   -8.112138|  2.1437e-05|    0.045693|
|        1130|  4.9951e+01|  4.9951e+01|   -8.067136|  2.0703e-05|    0.045699|
|        1140|  4.9951e+01|  4.9951e+01|   -8.039097|  2.0230e-05|    0.045713|
|        1150|  4.9951e+01|  4.9951e+01|   -8.060018|  2.1276e-05|    0.045747|
|        1160|  4.9951e+01|  4.9951e+01|   -8.067545|  2.3292e-05|    0.045800|
|        1170|  4.9951e+01|  4.9951e+01|   -8.049004|  2.5601e-05|    0.045861|
|        1180|  4.9951e+01|  4.9951e+01|   -8.058452|  2.7506e-05|    0.045913|
|        1190|  4.9951e+01|  4.9951e+01|   -8.086196|  2.8519e-05|    0.045949|
|        1200|  4.9951e+01|  4.9951e+01|   -8.079389|  2.8822e-05|    0.045974|
+-----------------------------------------------------------------------+
|        File Writing Summary       |              Filename             |
+-----------------------------------------------------------------------+
|SU2 binary restart                 |restart_flow_G6.dat                |
|Paraview                           |flow_G6.vtu                        |
|Paraview surface                   |surface_flow_G6.vtu                |
+-----------------------------------------------------------------------+
+-----------------------------------------------------------------------------+
|  Inner_Iter|     Min CFL|     Max CFL|      rms[P]|  Cauchy[CD]|          CD|
+-----------------------------------------------------------------------------+
|        1210|  4.9951e+01|  4.9951e+01|   -8.057060|  2.9253e-05|    0.045997|
|        1220|  4.9951e+01|  4.9951e+01|   -8.059675|  2.9453e-05|    0.046023|
|        1230|  4.9951e+01|  4.9951e+01|   -8.075645|  2.9616e-05|    0.046056|
|        1240|  4.9951e+01|  4.9951e+01|   -8.080038|  3.0325e-05|    0.046093|
|        1250|  4.9951e+01|  4.9951e+01|   -8.082959|  3.1473e-05|    0.046132|
|        1260|  4.9951e+01|  4.9951e+01|   -8.093057|  3.2769e-05|    0.046171|
|        1270|  4.9951e+01|  4.9951e+01|   -8.087648|  3.3812e-05|    0.046205|
|        1280|  4.9951e+01|  4.9951e+01|   -8.067231|  3.4532e-05|    0.046232|
|        1290|  4.9951e+01|  4.9951e+01|   -8.061215|  3.4779e-05|    0.046255|
|        1300|  4.9951e+01|  4.9951e+01|   -8.072616|  3.4305e-05|    0.046275|
|        1310|  4.9951e+01|  4.9951e+01|   -8.083137|  3.4507e-05|    0.046295|
|        1320|  4.9951e+01|  4.9951e+01|   -8.089824|  3.4018e-05|    0.046316|
|        1330|  4.9951e+01|  4.9951e+01|   -8.099481|  3.2268e-05|    0.046337|
|        1340|  4.9951e+01|  4.9951e+01|   -8.103736|  3.0343e-05|    0.046359|
|        1350|  2.1478e+01|  2.1478e+01|   -8.115090|  2.8626e-05|    0.046369|
|        1360|  1.1082e+01|  1.1082e+01|   -8.097389|  2.7925e-05|    0.046380|
|        1370|  5.7182e+00|  5.7182e+00|   -8.099167|  2.7896e-05|    0.046391|
|        1380|  3.5406e+01|  3.5406e+01|   -8.103823|  2.7830e-05|    0.046395|
|        1390|  1.0572e+01|  1.0572e+01|   -8.084967|  2.7640e-05|    0.046404|
|        1400|  5.4549e+00|  5.4549e+00|   -8.109317|  2.6531e-05|    0.046410|
+-----------------------------------------------------------------------+
|        File Writing Summary       |              Filename             |
+-----------------------------------------------------------------------+
|SU2 binary restart                 |restart_flow_G6.dat                |
|Paraview                           |flow_G6.vtu                        |
|Paraview surface                   |surface_flow_G6.vtu                |
+-----------------------------------------------------------------------+
+-----------------------------------------------------------------------------+
|  Inner_Iter|     Min CFL|     Max CFL|      rms[P]|  Cauchy[CD]|          CD|
+-----------------------------------------------------------------------------+
|        1410|  3.3776e+01|  3.3776e+01|   -8.119240|  2.4479e-05|    0.046412|
|        1420|  1.7427e+01|  1.7427e+01|   -8.126032|  2.2124e-05|    0.046413|
|        1430|  5.2038e+01|  5.2038e+01|   -8.129701|  2.0100e-05|    0.046413|
|        1440|  1.2949e+01|  1.2949e+01|   -8.136404|  1.8776e-05|    0.046409|
|        1450|  6.6813e+00|  6.6813e+00|   -8.149791|  1.7854e-05|    0.046409|
|        1460|  4.1369e+01|  4.1369e+01|   -8.160968|  1.6984e-05|    0.046409|
|        1470|  2.1345e+01|  2.1345e+01|   -8.168075|  1.5942e-05|    0.046409|
|        1480|  5.3114e+01|  5.3114e+01|   -8.169464|  1.4729e-05|    0.046410|
|        1490|  2.2838e+01|  2.2838e+01|   -8.178132|  1.3277e-05|    0.046411|
|        1500|  1.1784e+01|  1.1784e+01|   -8.172343|  1.1871e-05|    0.046415|
|        1510|  6.0802e+00|  6.0802e+00|   -8.179953|  1.0404e-05|    0.046417|
|        1520|  3.7647e+01|  3.7647e+01|   -8.187747|  9.0805e-06|    0.046416|
|        1530|  5.4212e+01|  5.4212e+01|   -8.187591|  8.2926e-06|    0.046408|
|        1540|  5.4212e+01|  5.4212e+01|   -8.196877|  8.1711e-06|    0.046388|
|        1550|  5.4212e+01|  5.4212e+01|   -8.204242|  8.5012e-06|    0.046360|
|        1560|  5.4212e+01|  5.4212e+01|   -8.212016|  8.9293e-06|    0.046329|
|        1570|  5.4212e+01|  5.4212e+01|   -8.219155|  9.1504e-06|    0.046303|
|        1580|  5.4212e+01|  5.4212e+01|   -8.221724|  9.2046e-06|    0.046280|
|        1590|  5.4212e+01|  5.4212e+01|   -8.221601|  9.3330e-06|    0.046255|
|        1600|  5.4212e+01|  5.4212e+01|   -8.218762|  1.0280e-05|    0.046222|
+-----------------------------------------------------------------------+
|        File Writing Summary       |              Filename             |
+-----------------------------------------------------------------------+
|SU2 binary restart                 |restart_flow_G6.dat                |
|Paraview                           |flow_G6.vtu                        |
|Paraview surface                   |surface_flow_G6.vtu                |
+-----------------------------------------------------------------------+
+-----------------------------------------------------------------------------+
|  Inner_Iter|     Min CFL|     Max CFL|      rms[P]|  Cauchy[CD]|          CD|
+-----------------------------------------------------------------------------+
|        1610|  5.4212e+01|  5.4212e+01|   -8.213310|  1.1613e-05|    0.046177|
|        1620|  5.4212e+01|  5.4212e+01|   -8.210718|  1.3357e-05|    0.046123|
|        1630|  5.4212e+01|  5.4212e+01|   -8.214168|  1.5514e-05|    0.046065|
|        1640|  5.4212e+01|  5.4212e+01|   -8.221527|  1.7407e-05|    0.046008|
|        1650|  1.9425e+01|  1.9425e+01|   -8.244550|  1.8386e-05|    0.045978|
|        1660|  1.0023e+01|  1.0023e+01|   -8.212244|  1.9300e-05|    0.045953|
|        1670|  6.2059e+01|  6.2059e+01|   -8.242054|  2.0271e-05|    0.045927|
|        1680|  3.2021e+01|  3.2021e+01|   -8.252756|  2.1040e-05|    0.045906|
|        1690|  5.5333e+01|  5.5333e+01|   -8.236258|  2.3112e-05|    0.045851|
|        1700|  5.5333e+01|  5.5333e+01|   -8.232634|  2.5758e-05|    0.045783|
|        1710|  5.5333e+01|  5.5333e+01|   -8.229538|  2.8847e-05|    0.045705|
|        1720|  5.5333e+01|  5.5333e+01|   -8.230077|  3.2179e-05|    0.045621|
|        1730|  5.5333e+01|  5.5333e+01|   -8.233617|  3.5407e-05|    0.045538|
|        1740|  5.5333e+01|  5.5333e+01|   -8.237386|  3.8592e-05|    0.045458|
|        1750|  1.9827e+01|  1.9827e+01|   -8.259727|  4.0166e-05|    0.045415|
|        1760|  1.0230e+01|  1.0230e+01|   -8.225866|  4.1575e-05|    0.045378|
|        1770|  6.3342e+01|  6.3342e+01|   -8.250029|  4.3064e-05|    0.045339|
|        1780|  3.2683e+01|  3.2683e+01|   -8.258610|  4.3945e-05|    0.045309|
|        1790|  5.6477e+01|  5.6477e+01|   -8.241674|  4.6296e-05|    0.045231|
|        1800|  5.6477e+01|  5.6477e+01|   -8.240366|  4.8787e-05|    0.045140|
+-----------------------------------------------------------------------+
|        File Writing Summary       |              Filename             |
+-----------------------------------------------------------------------+
|SU2 binary restart                 |restart_flow_G6.dat                |
|Paraview                           |flow_G6.vtu                        |
|Paraview surface                   |surface_flow_G6.vtu                |
+-----------------------------------------------------------------------+
+-----------------------------------------------------------------------------+
|  Inner_Iter|     Min CFL|     Max CFL|      rms[P]|  Cauchy[CD]|          CD|
+-----------------------------------------------------------------------------+
|        1810|  5.6477e+01|  5.6477e+01|   -8.241289|  5.1439e-05|    0.045043|
|        1820|  5.6477e+01|  5.6477e+01|   -8.242626|  5.4310e-05|    0.044945|
|        1830|  2.0237e+01|  2.0237e+01|   -8.257592|  5.5465e-05|    0.044893|
|        1840|  1.0442e+01|  1.0442e+01|   -8.236896|  5.6189e-05|    0.044851|
|        1850|  6.4652e+01|  6.4652e+01|   -8.254736|  5.6567e-05|    0.044808|
|        1860|  3.3359e+01|  3.3359e+01|   -8.260722|  5.6083e-05|    0.044775|
|        1870|  5.7644e+01|  5.7644e+01|   -8.250760|  5.7187e-05|    0.044693|
|        1880|  5.7644e+01|  5.7644e+01|   -8.252932|  5.8511e-05|    0.044602|
|        1890|  5.7644e+01|  5.7644e+01|   -8.257801|  6.0088e-05|    0.044506|
|        1900|  5.7644e+01|  5.7644e+01|   -8.262948|  6.2800e-05|    0.044408|
|        1910|  5.7644e+01|  5.7644e+01|   -8.268980|  6.5593e-05|    0.044313|
|        1920|  5.7644e+01|  5.7644e+01|   -8.275266|  6.8166e-05|    0.044223|
|        1930|  5.7644e+01|  5.7644e+01|   -8.282918|  7.0808e-05|    0.044136|
|        1940|  5.7644e+01|  5.7644e+01|   -8.293002|  7.2008e-05|    0.044051|
|        1950|  5.7644e+01|  5.7644e+01|   -8.305652|  7.2706e-05|    0.043966|
|        1960|  5.7644e+01|  5.7644e+01|   -8.321141|  7.3061e-05|    0.043879|
|        1970|  5.7644e+01|  5.7644e+01|   -8.339330|  7.3175e-05|    0.043792|
|        1980|  5.7644e+01|  5.7644e+01|   -8.359653|  7.3223e-05|    0.043708|
|        1990|  5.7644e+01|  5.7644e+01|   -8.381646|  7.3221e-05|    0.043628|
|        2000|  5.7644e+01|  5.7644e+01|   -8.405430|  7.4594e-05|    0.043550|
+-----------------------------------------------------------------------+
|        File Writing Summary       |              Filename             |
+-----------------------------------------------------------------------+
|SU2 binary restart                 |restart_flow_G6.dat                |
|Paraview                           |flow_G6.vtu                        |
|Paraview surface                   |surface_flow_G6.vtu                |
+-----------------------------------------------------------------------+
+-----------------------------------------------------------------------------+
|  Inner_Iter|     Min CFL|     Max CFL|      rms[P]|  Cauchy[CD]|          CD|
+-----------------------------------------------------------------------------+
|        2010|  5.7644e+01|  5.7644e+01|   -8.431309|  7.6216e-05|    0.043472|
|        2020|  5.7644e+01|  5.7644e+01|   -8.458807|  7.7814e-05|    0.043394|
|        2030|  5.7644e+01|  5.7644e+01|   -8.486508|  7.9734e-05|    0.043316|
|        2040|  5.7644e+01|  5.7644e+01|   -8.513150|  7.9686e-05|    0.043239|
|        2050|  5.7644e+01|  5.7644e+01|   -8.538136|  7.9080e-05|    0.043163|
|        2060|  5.7644e+01|  5.7644e+01|   -8.560580|  7.8160e-05|    0.043089|
|        2070|  2.4786e+01|  2.4786e+01|   -8.607991|  7.5311e-05|    0.043062|
|        2080|  1.2789e+01|  1.2789e+01|   -8.603672|  7.4588e-05|    0.043029|
|        2090|  5.4991e+01|  5.4991e+01|   -8.597095|  7.4496e-05|    0.042988|
|        2100|  5.4991e+01|  5.4991e+01|   -8.604610|  7.5622e-05|    0.042917|
|        2110|  5.4991e+01|  5.4991e+01|   -8.612647|  7.7096e-05|    0.042848|
|        2120|  5.4991e+01|  5.4991e+01|   -8.611547|  7.6675e-05|    0.042777|
|        2130|  5.4991e+01|  5.4991e+01|   -8.608841|  7.5878e-05|    0.042705|
|        2140|  5.4991e+01|  5.4991e+01|   -8.602263|  7.4808e-05|    0.042636|
|        2150|  5.4991e+01|  5.4991e+01|   -8.593242|  7.3635e-05|    0.042567|
|        2160|  1.6420e+01|  1.6420e+01|   -8.634946|  7.1552e-05|    0.042525|
|        2170|  8.4724e+00|  8.4724e+00|   -8.547867|  6.9309e-05|    0.042490|
|        2180|  5.2459e+01|  5.2459e+01|   -8.604674|  6.6944e-05|    0.042463|
|        2190|  2.7068e+01|  2.7068e+01|   -8.612481|  6.4662e-05|    0.042434|
|        2200|  5.6128e+01|  5.6128e+01|   -8.573560|  6.3667e-05|    0.042374|
+-----------------------------------------------------------------------+
|        File Writing Summary       |              Filename             |
+-----------------------------------------------------------------------+
|SU2 binary restart                 |restart_flow_G6.dat                |
|Paraview                           |flow_G6.vtu                        |
|Paraview surface                   |surface_flow_G6.vtu                |
+-----------------------------------------------------------------------+
+-----------------------------------------------------------------------------+
|  Inner_Iter|     Min CFL|     Max CFL|      rms[P]|  Cauchy[CD]|          CD|
+-----------------------------------------------------------------------------+
|        2210|  5.6128e+01|  5.6128e+01|   -8.560427|  6.2996e-05|    0.042304|
|        2220|  5.6128e+01|  5.6128e+01|   -8.549113|  6.2382e-05|    0.042232|
|        2230|  5.6128e+01|  5.6128e+01|   -8.538192|  6.1909e-05|    0.042160|
|        2240|  5.6128e+01|  5.6128e+01|   -8.528843|  6.1512e-05|    0.042090|
|        2250|  5.6128e+01|  5.6128e+01|   -8.520944|  6.1148e-05|    0.042021|
|        2260|  5.6128e+01|  5.6128e+01|   -8.515724|  6.0788e-05|    0.041952|
|        2270|  5.6128e+01|  5.6128e+01|   -8.512634|  6.0415e-05|    0.041884|
|        2280|  5.6128e+01|  5.6128e+01|   -8.510841|  6.0020e-05|    0.041815|
|        2290|  5.6128e+01|  5.6128e+01|   -8.510264|  5.9638e-05|    0.041748|
|        2300|  5.6128e+01|  5.6128e+01|   -8.510879|  5.9298e-05|    0.041681|
|        2310|  5.6128e+01|  5.6128e+01|   -8.513000|  5.8990e-05|    0.041615|
|        2320|  5.6128e+01|  5.6128e+01|   -8.516843|  6.0531e-05|    0.041549|
|        2330|  5.6128e+01|  5.6128e+01|   -8.522654|  6.1759e-05|    0.041485|
|        2340|  5.6128e+01|  5.6128e+01|   -8.530645|  6.2678e-05|    0.041421|
|        2350|  5.6128e+01|  5.6128e+01|   -8.540621|  6.2370e-05|    0.041358|
|        2360|  5.6128e+01|  5.6128e+01|   -8.552037|  6.2085e-05|    0.041296|
|        2370|  5.6128e+01|  5.6128e+01|   -8.564486|  6.1686e-05|    0.041234|
|        2380|  5.6128e+01|  5.6128e+01|   -8.578236|  6.1248e-05|    0.041174|
|        2390|  5.6128e+01|  5.6128e+01|   -8.593951|  6.0854e-05|    0.041114|
|        2400|  1.1639e+01|  1.1639e+01|   -8.607466|  5.9655e-05|    0.041076|
+-----------------------------------------------------------------------+
|        File Writing Summary       |              Filename             |
+-----------------------------------------------------------------------+
|SU2 binary restart                 |restart_flow_G6.dat                |
|Paraview                           |flow_G6.vtu                        |
|Paraview surface                   |surface_flow_G6.vtu                |
+-----------------------------------------------------------------------+
+-----------------------------------------------------------------------------+
|  Inner_Iter|     Min CFL|     Max CFL|      rms[P]|  Cauchy[CD]|          CD|
+-----------------------------------------------------------------------------+
|        2410|  6.0053e+00|  6.0053e+00|   -8.624219|  5.9190e-05|    0.041045|
|        2420|  3.7183e+01|  3.7183e+01|   -8.639438|  5.8492e-05|    0.041028|
|        2430|  5.3544e+01|  5.3544e+01|   -8.641572|  5.9483e-05|    0.040975|
|        2440|  5.3544e+01|  5.3544e+01|   -8.663668|  6.0531e-05|    0.040921|
|        2450|  5.3544e+01|  5.3544e+01|   -8.683379|  6.0282e-05|    0.040867|
|        2460|  5.3544e+01|  5.3544e+01|   -8.702151|  5.9682e-05|    0.040812|
|        2470|  5.3544e+01|  5.3544e+01|   -8.722415|  5.8995e-05|    0.040758|
|        2480|  5.3544e+01|  5.3544e+01|   -8.740172|  5.8235e-05|    0.040704|
|        2490|  5.3544e+01|  5.3544e+01|   -8.756418|  5.7527e-05|    0.040652|
|        2500|  5.3544e+01|  5.3544e+01|   -8.770348|  5.6887e-05|    0.040599|
|        2510|  5.3544e+01|  5.3544e+01|   -8.780619|  5.6242e-05|    0.040546|
|        2520|  5.3544e+01|  5.3544e+01|   -8.787161|  5.5564e-05|    0.040495|
|        2530|  5.3544e+01|  5.3544e+01|   -8.790177|  5.4910e-05|    0.040443|
|        2540|  5.3544e+01|  5.3544e+01|   -8.790636|  5.4296e-05|    0.040391|
|        2550|  5.3544e+01|  5.3544e+01|   -8.789101|  5.3696e-05|    0.040339|
|        2560|  7.7103e+00|  7.7103e+00|   -8.759499|  5.2734e-05|    0.040296|
|        2570|  4.7740e+01|  4.7740e+01|   -8.802328|  5.0874e-05|    0.040277|
|        2580|  2.4633e+01|  2.4633e+01|   -8.808541|  4.9058e-05|    0.040258|
|        2590|  5.1079e+01|  5.1079e+01|   -8.784339|  4.8173e-05|    0.040217|
|        2600|  5.1079e+01|  5.1079e+01|   -8.777808|  4.7573e-05|    0.040169|
+-----------------------------------------------------------------------+
|        File Writing Summary       |              Filename             |
+-----------------------------------------------------------------------+
|SU2 binary restart                 |restart_flow_G6.dat                |
|Paraview                           |flow_G6.vtu                        |
|Paraview surface                   |surface_flow_G6.vtu                |
+-----------------------------------------------------------------------+
+-----------------------------------------------------------------------------+
|  Inner_Iter|     Min CFL|     Max CFL|      rms[P]|  Cauchy[CD]|          CD|
+-----------------------------------------------------------------------------+
|        2610|  5.1079e+01|  5.1079e+01|   -8.773672|  4.6992e-05|    0.040121|
|        2620|  5.1079e+01|  5.1079e+01|   -8.769126|  4.6490e-05|    0.040072|
|        2630|  5.1079e+01|  5.1079e+01|   -8.765562|  4.6027e-05|    0.040023|
|        2640|  5.1079e+01|  5.1079e+01|   -8.763051|  4.5561e-05|    0.039975|
|        2650|  5.1079e+01|  5.1079e+01|   -8.761243|  4.5898e-05|    0.039928|
|        2660|  5.1079e+01|  5.1079e+01|   -8.760890|  4.6540e-05|    0.039881|
|        2670|  5.1079e+01|  5.1079e+01|   -8.761676|  4.7739e-05|    0.039835|
|        2680|  5.1079e+01|  5.1079e+01|   -8.763380|  4.7483e-05|    0.039788|
|        2690|  5.1079e+01|  5.1079e+01|   -8.765544|  4.7146e-05|    0.039743|
|        2700|  5.1079e+01|  5.1079e+01|   -8.768265|  4.6810e-05|    0.039697|
|        2710|  5.1079e+01|  5.1079e+01|   -8.772015|  4.6436e-05|    0.039651|
|        2720|  5.1079e+01|  5.1079e+01|   -8.776671|  4.6072e-05|    0.039606|
|        2730|  5.1079e+01|  5.1079e+01|   -8.781697|  4.5725e-05|    0.039561|
|        2740|  5.1079e+01|  5.1079e+01|   -8.786748|  4.5385e-05|    0.039517|
|        2750|  5.1079e+01|  5.1079e+01|   -8.791937|  4.5031e-05|    0.039473|
|        2760|  5.1079e+01|  5.1079e+01|   -8.797633|  4.4680e-05|    0.039429|
|        2770|  5.1079e+01|  5.1079e+01|   -8.803859|  4.4343e-05|    0.039386|
|        2780|  5.1079e+01|  5.1079e+01|   -8.810182|  4.3995e-05|    0.039343|
|        2790|  5.1079e+01|  5.1079e+01|   -8.816143|  4.3624e-05|    0.039300|
|        2800|  7.3553e+00|  7.3553e+00|   -8.803732|  4.2945e-05|    0.039265|
+-----------------------------------------------------------------------+
|        File Writing Summary       |              Filename             |
+-----------------------------------------------------------------------+
|SU2 binary restart                 |restart_flow_G6.dat                |
|Paraview                           |flow_G6.vtu                        |
|Paraview surface                   |surface_flow_G6.vtu                |
+-----------------------------------------------------------------------+
+-----------------------------------------------------------------------------+
|  Inner_Iter|     Min CFL|     Max CFL|      rms[P]|  Cauchy[CD]|          CD|
+-----------------------------------------------------------------------------+
|        2810|  4.5542e+01|  4.5542e+01|   -8.837368|  4.1885e-05|    0.039249|
|        2820|  2.3499e+01|  2.3499e+01|   -8.843233|  4.1757e-05|    0.039233|
|        2830|  4.8727e+01|  4.8727e+01|   -8.832431|  4.2373e-05|    0.039199|
|        2840|  4.8727e+01|  4.8727e+01|   -8.837469|  4.2316e-05|    0.039159|
|        2850|  4.8727e+01|  4.8727e+01|   -8.843063|  4.1976e-05|    0.039119|
|        2860|  4.8727e+01|  4.8727e+01|   -8.846378|  4.1664e-05|    0.039079|
|        2870|  4.8727e+01|  4.8727e+01|   -8.850814|  4.1329e-05|    0.039039|
|        2880|  4.8727e+01|  4.8727e+01|   -8.855214|  4.0991e-05|    0.038999|
|        2890|  4.8727e+01|  4.8727e+01|   -8.857817|  4.0658e-05|    0.038959|
|        2900|  4.8727e+01|  4.8727e+01|   -8.860056|  4.0345e-05|    0.038920|
|        2910|  4.8727e+01|  4.8727e+01|   -8.861894|  4.0053e-05|    0.038880|
|        2920|  4.8727e+01|  4.8727e+01|   -8.863584|  3.9769e-05|    0.038840|
|        2930|  4.8727e+01|  4.8727e+01|   -8.865457|  3.9497e-05|    0.038801|
|        2940|  4.8727e+01|  4.8727e+01|   -8.866982|  3.9240e-05|    0.038762|
|        2950|  4.8727e+01|  4.8727e+01|   -8.868032|  3.8993e-05|    0.038722|
|        2960|  4.8727e+01|  4.8727e+01|   -8.868610|  3.8756e-05|    0.038682|
|        2970|  4.8727e+01|  4.8727e+01|   -8.868617|  3.8533e-05|    0.038642|
|        2980|  4.8727e+01|  4.8727e+01|   -8.868429|  3.8326e-05|    0.038603|
|        2990|  4.8727e+01|  4.8727e+01|   -8.868355|  3.8131e-05|    0.038564|
|        3000|  4.8727e+01|  4.8727e+01|   -8.868574|  3.7948e-05|    0.038524|
+-----------------------------------------------------------------------+
|        File Writing Summary       |              Filename             |
+-----------------------------------------------------------------------+
|SU2 binary restart                 |restart_flow_G6.dat                |
|Paraview                           |flow_G6.vtu                        |
|Paraview surface                   |surface_flow_G6.vtu                |
+-----------------------------------------------------------------------+
+-----------------------------------------------------------------------------+
|  Inner_Iter|     Min CFL|     Max CFL|      rms[P]|  Cauchy[CD]|          CD|
+-----------------------------------------------------------------------------+
|        3010|  4.8727e+01|  4.8727e+01|   -8.869018|  3.7777e-05|    0.038485|
|        3020|  4.8727e+01|  4.8727e+01|   -8.869621|  3.7615e-05|    0.038446|
|        3030|  4.8727e+01|  4.8727e+01|   -8.870446|  3.7459e-05|    0.038406|
|        3040|  4.8727e+01|  4.8727e+01|   -8.871548|  3.7310e-05|    0.038367|
|        3050|  4.8727e+01|  4.8727e+01|   -8.872851|  3.7469e-05|    0.038328|
|        3060|  4.8727e+01|  4.8727e+01|   -8.874282|  3.8389e-05|    0.038289|
|        3070|  4.8727e+01|  4.8727e+01|   -8.875933|  3.9310e-05|    0.038251|
|        3080|  4.8727e+01|  4.8727e+01|   -8.877993|  3.9479e-05|    0.038212|
|        3090|  5.8472e+00|  5.8472e+00|   -8.880535|  3.9281e-05|    0.038177|
|        3100|  3.6205e+01|  3.6205e+01|   -8.897095|  3.8182e-05|    0.038165|
|        3110|  1.8681e+01|  1.8681e+01|   -8.899530|  3.7198e-05|    0.038149|
|        3120|  4.6484e+01|  4.6484e+01|   -8.888660|  3.6742e-05|    0.038120|
|        3130|  4.6484e+01|  4.6484e+01|   -8.890678|  3.6581e-05|    0.038084|
|        3140|  4.6484e+01|  4.6484e+01|   -8.893975|  3.6425e-05|    0.038048|
|        3150|  4.6484e+01|  4.6484e+01|   -8.896088|  3.6284e-05|    0.038013|
|        3160|  4.6484e+01|  4.6484e+01|   -8.898189|  3.6144e-05|    0.037976|
|        3170|  4.6484e+01|  4.6484e+01|   -8.901089|  3.6000e-05|    0.037940|
|        3180|  4.6484e+01|  4.6484e+01|   -8.903586|  3.5851e-05|    0.037905|
|        3190|  4.6484e+01|  4.6484e+01|   -8.906154|  3.5681e-05|    0.037870|
|        3200|  4.6484e+01|  4.6484e+01|   -8.908699|  3.5495e-05|    0.037834|
+-----------------------------------------------------------------------+
|        File Writing Summary       |              Filename             |
+-----------------------------------------------------------------------+
|SU2 binary restart                 |restart_flow_G6.dat                |
|Paraview                           |flow_G6.vtu                        |
|Paraview surface                   |surface_flow_G6.vtu                |
+-----------------------------------------------------------------------+
+-----------------------------------------------------------------------------+
|  Inner_Iter|     Min CFL|     Max CFL|      rms[P]|  Cauchy[CD]|          CD|
+-----------------------------------------------------------------------------+
|        3210|  4.6484e+01|  4.6484e+01|   -8.910938|  3.5305e-05|    0.037799|
|        3220|  4.6484e+01|  4.6484e+01|   -8.912932|  3.5111e-05|    0.037765|
|        3230|  4.6484e+01|  4.6484e+01|   -8.914545|  3.4914e-05|    0.037730|
|        3240|  4.6484e+01|  4.6484e+01|   -8.916022|  3.4720e-05|    0.037696|
|        3250|  4.6484e+01|  4.6484e+01|   -8.917737|  3.4528e-05|    0.037661|
|        3260|  4.6484e+01|  4.6484e+01|   -8.919641|  3.4329e-05|    0.037627|
|        3270|  4.6484e+01|  4.6484e+01|   -8.921496|  3.4120e-05|    0.037593|
|        3280|  4.6484e+01|  4.6484e+01|   -8.923154|  3.3906e-05|    0.037559|
|        3290|  4.6484e+01|  4.6484e+01|   -8.924660|  3.3694e-05|    0.037525|
|        3300|  4.6484e+01|  4.6484e+01|   -8.926253|  3.3483e-05|    0.037491|
|        3310|  4.6484e+01|  4.6484e+01|   -8.928052|  3.3274e-05|    0.037458|
|        3320|  4.6484e+01|  4.6484e+01|   -8.930009|  3.3069e-05|    0.037424|
|        3330|  4.6484e+01|  4.6484e+01|   -8.932089|  3.2865e-05|    0.037390|
|        3340|  4.6484e+01|  4.6484e+01|   -8.934178|  3.2799e-05|    0.037357|
|        3350|  4.6484e+01|  4.6484e+01|   -8.936243|  3.3642e-05|    0.037324|
|        3360|  4.6484e+01|  4.6484e+01|   -8.938320|  3.4345e-05|    0.037291|
|        3370|  4.6484e+01|  4.6484e+01|   -8.940491|  3.4506e-05|    0.037258|
|        3380|  4.6484e+01|  4.6484e+01|   -8.942846|  3.4372e-05|    0.037225|
|        3390|  4.6484e+01|  4.6484e+01|   -8.945407|  3.4251e-05|    0.037192|
|        3400|  4.6484e+01|  4.6484e+01|   -8.948122|  3.4124e-05|    0.037159|
+-----------------------------------------------------------------------+
|        File Writing Summary       |              Filename             |
+-----------------------------------------------------------------------+
|SU2 binary restart                 |restart_flow_G6.dat                |
|Paraview                           |flow_G6.vtu                        |
|Paraview surface                   |surface_flow_G6.vtu                |
+-----------------------------------------------------------------------+
+-----------------------------------------------------------------------------+
|  Inner_Iter|     Min CFL|     Max CFL|      rms[P]|  Cauchy[CD]|          CD|
+-----------------------------------------------------------------------------+
|        3410|  4.6484e+01|  4.6484e+01|   -8.950904|  3.3985e-05|    0.037127|
|        3420|  4.6484e+01|  4.6484e+01|   -8.953720|  3.3842e-05|    0.037094|
|        3430|  4.6484e+01|  4.6484e+01|   -8.956509|  3.3705e-05|    0.037062|
|        3440|  4.6484e+01|  4.6484e+01|   -8.959228|  3.3581e-05|    0.037030|
|        3450|  4.6484e+01|  4.6484e+01|   -8.961917|  3.3460e-05|    0.036998|
|        3460|  4.6484e+01|  4.6484e+01|   -8.964660|  3.3334e-05|    0.036966|
|        3470|  4.6484e+01|  4.6484e+01|   -8.967564|  3.3213e-05|    0.036934|
|        3480|  4.6484e+01|  4.6484e+01|   -8.970667|  3.3095e-05|    0.036903|
|        3490|  4.6484e+01|  4.6484e+01|   -8.973871|  3.2973e-05|    0.036871|
|        3500|  4.6484e+01|  4.6484e+01|   -8.977060|  3.2844e-05|    0.036840|
|        3510|  4.6484e+01|  4.6484e+01|   -8.980117|  3.2713e-05|    0.036809|
|        3520|  4.6484e+01|  4.6484e+01|   -8.983046|  3.2585e-05|    0.036778|
|        3530|  5.5780e+00|  5.5780e+00|   -8.985963|  3.2347e-05|    0.036750|
|        3540|  3.4538e+01|  3.4538e+01|   -9.000816|  3.1385e-05|    0.036740|
|        3550|  1.7821e+01|  1.7821e+01|   -9.004065|  3.0537e-05|    0.036728|
|        3560|  4.4344e+01|  4.4344e+01|   -8.993511|  3.0117e-05|    0.036705|
|        3570|  4.4344e+01|  4.4344e+01|   -8.995599|  2.9929e-05|    0.036676|
|        3580|  4.4344e+01|  4.4344e+01|   -8.998654|  2.9737e-05|    0.036647|
|        3590|  4.4344e+01|  4.4344e+01|   -9.001298|  2.9549e-05|    0.036618|
|        3600|  4.4344e+01|  4.4344e+01|   -9.003719|  2.9372e-05|    0.036590|
+-----------------------------------------------------------------------+
|        File Writing Summary       |              Filename             |
+-----------------------------------------------------------------------+
|SU2 binary restart                 |restart_flow_G6.dat                |
|Paraview                           |flow_G6.vtu                        |
|Paraview surface                   |surface_flow_G6.vtu                |
+-----------------------------------------------------------------------+
+-----------------------------------------------------------------------------+
|  Inner_Iter|     Min CFL|     Max CFL|      rms[P]|  Cauchy[CD]|          CD|
+-----------------------------------------------------------------------------+
|        3610|  4.4344e+01|  4.4344e+01|   -9.006512|  2.9199e-05|    0.036561|
|        3620|  4.4344e+01|  4.4344e+01|   -9.008930|  2.9025e-05|    0.036532|
|        3630|  4.4344e+01|  4.4344e+01|   -9.010985|  2.8842e-05|    0.036504|
|        3640|  4.4344e+01|  4.4344e+01|   -9.012953|  2.8654e-05|    0.036476|
|        3650|  4.4344e+01|  4.4344e+01|   -9.014957|  2.8468e-05|    0.036448|
|        3660|  4.4344e+01|  4.4344e+01|   -9.016964|  2.8282e-05|    0.036420|
|        3670|  4.4344e+01|  4.4344e+01|   -9.018848|  2.8092e-05|    0.036392|
|        3680|  4.4344e+01|  4.4344e+01|   -9.020520|  2.7905e-05|    0.036364|
|        3690|  4.4344e+01|  4.4344e+01|   -9.022062|  2.7724e-05|    0.036337|
|        3700|  4.4344e+01|  4.4344e+01|   -9.023521|  2.7548e-05|    0.036309|
|        3710|  4.4344e+01|  4.4344e+01|   -9.024849|  2.7371e-05|    0.036282|
|        3720|  4.4344e+01|  4.4344e+01|   -9.025939|  2.7193e-05|    0.036255|
|        3730|  4.4344e+01|  4.4344e+01|   -9.026840|  2.7016e-05|    0.036227|
|        3740|  4.4344e+01|  4.4344e+01|   -9.027708|  2.6839e-05|    0.036200|
|        3750|  4.4344e+01|  4.4344e+01|   -9.028655|  2.6663e-05|    0.036174|
|        3760|  4.4344e+01|  4.4344e+01|   -9.029663|  2.6491e-05|    0.036147|
|        3770|  4.4344e+01|  4.4344e+01|   -9.030622|  2.6324e-05|    0.036120|
|        3780|  4.4344e+01|  4.4344e+01|   -9.031549|  2.6269e-05|    0.036093|
|        3790|  4.4344e+01|  4.4344e+01|   -9.032464|  2.6941e-05|    0.036067|
|        3800|  4.4344e+01|  4.4344e+01|   -9.033346|  2.7496e-05|    0.036040|
+-----------------------------------------------------------------------+
|        File Writing Summary       |              Filename             |
+-----------------------------------------------------------------------+
|SU2 binary restart                 |restart_flow_G6.dat                |
|Paraview                           |flow_G6.vtu                        |
|Paraview surface                   |surface_flow_G6.vtu                |
+-----------------------------------------------------------------------+
+-----------------------------------------------------------------------------+
|  Inner_Iter|     Min CFL|     Max CFL|      rms[P]|  Cauchy[CD]|          CD|
+-----------------------------------------------------------------------------+
|        3810|  4.4344e+01|  4.4344e+01|   -9.034171|  2.7621e-05|    0.036014|
|        3820|  4.4344e+01|  4.4344e+01|   -9.034959|  2.7511e-05|    0.035988|
|        3830|  4.4344e+01|  4.4344e+01|   -9.035828|  2.7405e-05|    0.035962|
|        3840|  4.4344e+01|  4.4344e+01|   -9.036865|  2.7297e-05|    0.035936|
|        3850|  4.4344e+01|  4.4344e+01|   -9.038118|  2.7179e-05|    0.035910|
|        3860|  4.4344e+01|  4.4344e+01|   -9.039511|  2.7058e-05|    0.035884|
|        3870|  4.4344e+01|  4.4344e+01|   -9.040906|  2.6938e-05|    0.035859|
|        3880|  4.4344e+01|  4.4344e+01|   -9.042216|  2.6824e-05|    0.035833|
|        3890|  4.4344e+01|  4.4344e+01|   -9.043432|  2.6715e-05|    0.035808|
|        3900|  4.4344e+01|  4.4344e+01|   -9.044620|  2.6603e-05|    0.035783|
|        3910|  4.4344e+01|  4.4344e+01|   -9.045874|  2.6492e-05|    0.035758|
|        3920|  4.4344e+01|  4.4344e+01|   -9.047283|  2.6384e-05|    0.035732|
|        3930|  4.4344e+01|  4.4344e+01|   -9.048884|  2.6276e-05|    0.035708|
|        3940|  4.4344e+01|  4.4344e+01|   -9.050642|  2.6163e-05|    0.035683|
|        3950|  4.4344e+01|  4.4344e+01|   -9.052453|  2.6046e-05|    0.035658|
|        3960|  4.4344e+01|  4.4344e+01|   -9.054218|  2.5930e-05|    0.035634|
|        3970|  4.4344e+01|  4.4344e+01|   -9.055870|  2.5816e-05|    0.035609|
|        3980|  4.4344e+01|  4.4344e+01|   -9.057435|  2.5704e-05|    0.035585|
|        3990|  4.4344e+01|  4.4344e+01|   -9.059005|  2.5593e-05|    0.035561|
|        4000|  4.4344e+01|  4.4344e+01|   -9.060696|  2.5482e-05|    0.035536|
+-----------------------------------------------------------------------+
|        File Writing Summary       |              Filename             |
+-----------------------------------------------------------------------+
|SU2 binary restart                 |restart_flow_G6.dat                |
|Paraview                           |flow_G6.vtu                        |
|Paraview surface                   |surface_flow_G6.vtu                |
+-----------------------------------------------------------------------+
+-----------------------------------------------------------------------------+
|  Inner_Iter|     Min CFL|     Max CFL|      rms[P]|  Cauchy[CD]|          CD|
+-----------------------------------------------------------------------------+
|        4010|  4.4344e+01|  4.4344e+01|   -9.062592|  2.5370e-05|    0.035512|
|        4020|  4.4344e+01|  4.4344e+01|   -9.064612|  2.5254e-05|    0.035489|
|        4030|  4.4344e+01|  4.4344e+01|   -9.066687|  2.5139e-05|    0.035465|
|        4040|  4.4344e+01|  4.4344e+01|   -9.068707|  2.5025e-05|    0.035441|
|        4050|  4.4344e+01|  4.4344e+01|   -9.070635|  2.4914e-05|    0.035417|
|        4060|  4.4344e+01|  4.4344e+01|   -9.072547|  2.4803e-05|    0.035394|
|        4070|  4.4344e+01|  4.4344e+01|   -9.074453|  2.4691e-05|    0.035371|
|        4080|  4.4344e+01|  4.4344e+01|   -9.076379|  2.4580e-05|    0.035347|
|        4090|  4.4344e+01|  4.4344e+01|   -9.078355|  2.4471e-05|    0.035324|
|        4100|  4.4344e+01|  4.4344e+01|   -9.080395|  2.4361e-05|    0.035301|
|        4110|  4.4344e+01|  4.4344e+01|   -9.082450|  2.4251e-05|    0.035278|
|        4120|  4.4344e+01|  4.4344e+01|   -9.084498|  2.4141e-05|    0.035255|
|        4130|  4.4344e+01|  4.4344e+01|   -9.086495|  2.4033e-05|    0.035232|
|        4140|  4.4344e+01|  4.4344e+01|   -9.088438|  2.3927e-05|    0.035210|
|        4150|  4.4344e+01|  4.4344e+01|   -9.090354|  2.3822e-05|    0.035187|
|        4160|  4.4344e+01|  4.4344e+01|   -9.092268|  2.3716e-05|    0.035165|
|        4170|  4.4344e+01|  4.4344e+01|   -9.094215|  2.3611e-05|    0.035142|
|        4180|  4.4344e+01|  4.4344e+01|   -9.096173|  2.3506e-05|    0.035120|
|        4190|  4.4344e+01|  4.4344e+01|   -9.098156|  2.3403e-05|    0.035098|
|        4200|  4.4344e+01|  4.4344e+01|   -9.100127|  2.3300e-05|    0.035076|
+-----------------------------------------------------------------------+
|        File Writing Summary       |              Filename             |
+-----------------------------------------------------------------------+
|SU2 binary restart                 |restart_flow_G6.dat                |
|Paraview                           |flow_G6.vtu                        |
|Paraview surface                   |surface_flow_G6.vtu                |
+-----------------------------------------------------------------------+
+-----------------------------------------------------------------------------+
|  Inner_Iter|     Min CFL|     Max CFL|      rms[P]|  Cauchy[CD]|          CD|
+-----------------------------------------------------------------------------+
|        4210|  4.4344e+01|  4.4344e+01|   -9.102061|  2.3197e-05|    0.035054|
|        4220|  4.4344e+01|  4.4344e+01|   -9.103984|  2.3095e-05|    0.035032|
|        4230|  4.4344e+01|  4.4344e+01|   -9.105898|  2.2993e-05|    0.035010|
|        4240|  4.4344e+01|  4.4344e+01|   -9.107816|  2.2891e-05|    0.034988|
|        4250|  4.4344e+01|  4.4344e+01|   -9.109740|  2.2789e-05|    0.034967|
|        4260|  4.4344e+01|  4.4344e+01|   -9.111683|  2.2688e-05|    0.034945|
|        4270|  4.4344e+01|  4.4344e+01|   -9.113627|  2.2587e-05|    0.034924|
|        4280|  4.4344e+01|  4.4344e+01|   -9.115556|  2.2486e-05|    0.034903|
|        4290|  4.4344e+01|  4.4344e+01|   -9.117470|  2.2386e-05|    0.034881|
|        4300|  4.4344e+01|  4.4344e+01|   -9.119396|  2.2286e-05|    0.034860|
|        4310|  4.4344e+01|  4.4344e+01|   -9.121319|  2.2186e-05|    0.034839|
|        4320|  4.4344e+01|  4.4344e+01|   -9.123251|  2.2085e-05|    0.034818|
|        4330|  4.4344e+01|  4.4344e+01|   -9.125162|  2.1984e-05|    0.034798|
|        4340|  4.4344e+01|  4.4344e+01|   -9.127047|  2.1883e-05|    0.034777|
|        4350|  4.4344e+01|  4.4344e+01|   -9.128909|  2.1782e-05|    0.034756|
|        4360|  4.4344e+01|  4.4344e+01|   -9.130751|  2.1681e-05|    0.034736|
|        4370|  4.4344e+01|  4.4344e+01|   -9.132578|  2.1581e-05|    0.034716|
|        4380|  4.4344e+01|  4.4344e+01|   -9.134387|  2.1482e-05|    0.034695|
|        4390|  4.4344e+01|  4.4344e+01|   -9.136158|  2.1382e-05|    0.034675|
|        4400|  4.4344e+01|  4.4344e+01|   -9.137902|  2.1282e-05|    0.034655|
+-----------------------------------------------------------------------+
|        File Writing Summary       |              Filename             |
+-----------------------------------------------------------------------+
|SU2 binary restart                 |restart_flow_G6.dat                |
|Paraview                           |flow_G6.vtu                        |
|Paraview surface                   |surface_flow_G6.vtu                |
+-----------------------------------------------------------------------+
+-----------------------------------------------------------------------------+
|  Inner_Iter|     Min CFL|     Max CFL|      rms[P]|  Cauchy[CD]|          CD|
+-----------------------------------------------------------------------------+
|        4410|  4.4344e+01|  4.4344e+01|   -9.139604|  2.1183e-05|    0.034635|
|        4420|  4.4344e+01|  4.4344e+01|   -9.141269|  2.1083e-05|    0.034615|
|        4430|  4.4344e+01|  4.4344e+01|   -9.142884|  2.0983e-05|    0.034595|
|        4440|  4.4344e+01|  4.4344e+01|   -9.144431|  2.0884e-05|    0.034576|
|        4450|  4.4344e+01|  4.4344e+01|   -9.145954|  2.0786e-05|    0.034556|
|        4460|  4.4344e+01|  4.4344e+01|   -9.147450|  2.0689e-05|    0.034536|
|        4470|  4.4344e+01|  4.4344e+01|   -9.148920|  2.0592e-05|    0.034517|
|        4480|  4.4344e+01|  4.4344e+01|   -9.150383|  2.0496e-05|    0.034498|
|        4490|  4.4344e+01|  4.4344e+01|   -9.151829|  2.0400e-05|    0.034478|
|        4500|  4.4344e+01|  4.4344e+01|   -9.153267|  2.0305e-05|    0.034459|
|        4510|  4.4344e+01|  4.4344e+01|   -9.154682|  2.0209e-05|    0.034440|
|        4520|  4.4344e+01|  4.4344e+01|   -9.156079|  2.0114e-05|    0.034421|
|        4530|  4.4344e+01|  4.4344e+01|   -9.157463|  2.0020e-05|    0.034402|
|        4540|  4.4344e+01|  4.4344e+01|   -9.158826|  1.9926e-05|    0.034383|
|        4550|  4.4344e+01|  4.4344e+01|   -9.160196|  1.9833e-05|    0.034365|
|        4560|  4.4344e+01|  4.4344e+01|   -9.161595|  1.9741e-05|    0.034346|
|        4570|  4.4344e+01|  4.4344e+01|   -9.163014|  1.9649e-05|    0.034327|
|        4580|  4.4344e+01|  4.4344e+01|   -9.164456|  1.9558e-05|    0.034309|
|        4590|  4.4344e+01|  4.4344e+01|   -9.165924|  1.9467e-05|    0.034290|
|        4600|  4.4344e+01|  4.4344e+01|   -9.167401|  1.9377e-05|    0.034272|
+-----------------------------------------------------------------------+
|        File Writing Summary       |              Filename             |
+-----------------------------------------------------------------------+
|SU2 binary restart                 |restart_flow_G6.dat                |
|Paraview                           |flow_G6.vtu                        |
|Paraview surface                   |surface_flow_G6.vtu                |
+-----------------------------------------------------------------------+
+-----------------------------------------------------------------------------+
|  Inner_Iter|     Min CFL|     Max CFL|      rms[P]|  Cauchy[CD]|          CD|
+-----------------------------------------------------------------------------+
|        4610|  4.4344e+01|  4.4344e+01|   -9.168889|  1.9287e-05|    0.034254|
|        4620|  4.4344e+01|  4.4344e+01|   -9.170386|  1.9197e-05|    0.034236|
|        4630|  4.4344e+01|  4.4344e+01|   -9.171894|  1.9108e-05|    0.034218|
|        4640|  4.4344e+01|  4.4344e+01|   -9.173447|  1.9019e-05|    0.034200|
|        4650|  4.4344e+01|  4.4344e+01|   -9.175039|  1.8931e-05|    0.034182|
|        4660|  4.4344e+01|  4.4344e+01|   -9.176685|  1.8844e-05|    0.034164|
|        4670|  4.4344e+01|  4.4344e+01|   -9.178356|  1.8757e-05|    0.034146|
|        4680|  4.4344e+01|  4.4344e+01|   -9.180053|  1.8670e-05|    0.034129|
|        4690|  4.4344e+01|  4.4344e+01|   -9.181773|  1.8583e-05|    0.034111|
|        4700|  4.4344e+01|  4.4344e+01|   -9.183519|  1.8497e-05|    0.034094|
|        4710|  4.4344e+01|  4.4344e+01|   -9.185280|  1.8410e-05|    0.034076|
|        4720|  4.4344e+01|  4.4344e+01|   -9.187061|  1.8325e-05|    0.034059|
|        4730|  4.4344e+01|  4.4344e+01|   -9.188847|  1.8239e-05|    0.034042|
|        4740|  4.4344e+01|  4.4344e+01|   -9.190657|  1.8154e-05|    0.034024|
|        4750|  4.4344e+01|  4.4344e+01|   -9.192492|  1.8069e-05|    0.034007|
|        4760|  4.4344e+01|  4.4344e+01|   -9.194338|  1.7985e-05|    0.033990|
|        4770|  4.4344e+01|  4.4344e+01|   -9.196197|  1.7901e-05|    0.033973|
|        4780|  4.4344e+01|  4.4344e+01|   -9.198050|  1.7818e-05|    0.033957|
|        4790|  4.4344e+01|  4.4344e+01|   -9.199899|  1.7735e-05|    0.033940|
|        4800|  4.4344e+01|  4.4344e+01|   -9.201753|  1.7652e-05|    0.033923|
+-----------------------------------------------------------------------+
|        File Writing Summary       |              Filename             |
+-----------------------------------------------------------------------+
|SU2 binary restart                 |restart_flow_G6.dat                |
|Paraview                           |flow_G6.vtu                        |
|Paraview surface                   |surface_flow_G6.vtu                |
+-----------------------------------------------------------------------+
+-----------------------------------------------------------------------------+
|  Inner_Iter|     Min CFL|     Max CFL|      rms[P]|  Cauchy[CD]|          CD|
+-----------------------------------------------------------------------------+
|        4810|  4.4344e+01|  4.4344e+01|   -9.203576|  1.7570e-05|    0.033907|
|        4820|  4.4344e+01|  4.4344e+01|   -9.205402|  1.7488e-05|    0.033890|
|        4830|  4.4344e+01|  4.4344e+01|   -9.207212|  1.7406e-05|    0.033874|
|        4840|  4.4344e+01|  4.4344e+01|   -9.209019|  1.7325e-05|    0.033857|
|        4850|  4.4344e+01|  4.4344e+01|   -9.210842|  1.7244e-05|    0.033841|
|        4860|  4.4344e+01|  4.4344e+01|   -9.212656|  1.7164e-05|    0.033825|
|        4870|  4.4344e+01|  4.4344e+01|   -9.214485|  1.7084e-05|    0.033809|
|        4880|  4.4344e+01|  4.4344e+01|   -9.216303|  1.7005e-05|    0.033793|
|        4890|  4.4344e+01|  4.4344e+01|   -9.218109|  1.6925e-05|    0.033777|
|        4900|  4.4344e+01|  4.4344e+01|   -9.219901|  1.6847e-05|    0.033761|
|        4910|  4.4344e+01|  4.4344e+01|   -9.221661|  1.6768e-05|    0.033745|
|        4920|  4.4344e+01|  4.4344e+01|   -9.223421|  1.6690e-05|    0.033729|
|        4930|  4.4344e+01|  4.4344e+01|   -9.225184|  1.6612e-05|    0.033713|
|        4940|  4.4344e+01|  4.4344e+01|   -9.226949|  1.6535e-05|    0.033698|
|        4950|  4.4344e+01|  4.4344e+01|   -9.228721|  1.6457e-05|    0.033682|
|        4960|  4.4344e+01|  4.4344e+01|   -9.230520|  1.6380e-05|    0.033667|
|        4970|  4.4344e+01|  4.4344e+01|   -9.232336|  1.6303e-05|    0.033651|
|        4980|  4.4344e+01|  4.4344e+01|   -9.234157|  1.6227e-05|    0.033636|
|        4990|  4.4344e+01|  4.4344e+01|   -9.235971|  1.6151e-05|    0.033621|
|        5000|  4.4344e+01|  4.4344e+01|   -9.237779|  1.6075e-05|    0.033606|
+-----------------------------------------------------------------------+
|        File Writing Summary       |              Filename             |
+-----------------------------------------------------------------------+
|SU2 binary restart                 |restart_flow_G6.dat                |
|Paraview                           |flow_G6.vtu                        |
|Paraview surface                   |surface_flow_G6.vtu                |
+-----------------------------------------------------------------------+
+-----------------------------------------------------------------------------+
|  Inner_Iter|     Min CFL|     Max CFL|      rms[P]|  Cauchy[CD]|          CD|
+-----------------------------------------------------------------------------+
|        5010|  4.4344e+01|  4.4344e+01|   -9.239588|  1.6000e-05|    0.033590|
|        5020|  4.4344e+01|  4.4344e+01|   -9.241419|  1.5925e-05|    0.033575|
|        5030|  4.4344e+01|  4.4344e+01|   -9.243255|  1.5850e-05|    0.033560|
|        5040|  4.4344e+01|  4.4344e+01|   -9.245099|  1.5775e-05|    0.033546|
|        5050|  4.4344e+01|  4.4344e+01|   -9.246647|  1.5700e-05|    0.033531|
|        5060|  4.4344e+01|  4.4344e+01|   -9.248117|  1.5626e-05|    0.033516|
|        5070|  4.4344e+01|  4.4344e+01|   -9.249747|  1.5552e-05|    0.033501|
|        5080|  4.4344e+01|  4.4344e+01|   -9.251406|  1.5479e-05|    0.033487|
|        5090|  4.4344e+01|  4.4344e+01|   -9.253218|  1.5405e-05|    0.033472|
|        5100|  4.4344e+01|  4.4344e+01|   -9.255189|  1.5332e-05|    0.033458|
|        5110|  4.4344e+01|  4.4344e+01|   -9.257240|  1.5259e-05|    0.033443|
|        5120|  4.4344e+01|  4.4344e+01|   -9.259286|  1.5187e-05|    0.033429|
|        5130|  4.4344e+01|  4.4344e+01|   -9.261232|  1.5115e-05|    0.033415|
|        5140|  4.4344e+01|  4.4344e+01|   -9.263079|  1.5043e-05|    0.033400|
|        5150|  4.4344e+01|  4.4344e+01|   -9.264824|  1.4971e-05|    0.033386|
|        5160|  4.4344e+01|  4.4344e+01|   -9.266513|  1.4899e-05|    0.033372|
|        5170|  4.4344e+01|  4.4344e+01|   -9.268202|  1.4828e-05|    0.033358|
|        5180|  4.4344e+01|  4.4344e+01|   -9.269934|  1.4757e-05|    0.033344|
|        5190|  4.4344e+01|  4.4344e+01|   -9.271714|  1.4686e-05|    0.033330|
|        5200|  4.4344e+01|  4.4344e+01|   -9.273527|  1.4616e-05|    0.033317|
+-----------------------------------------------------------------------+
|        File Writing Summary       |              Filename             |
+-----------------------------------------------------------------------+
|SU2 binary restart                 |restart_flow_G6.dat                |
|Paraview                           |flow_G6.vtu                        |
|Paraview surface                   |surface_flow_G6.vtu                |
+-----------------------------------------------------------------------+
+-----------------------------------------------------------------------------+
|  Inner_Iter|     Min CFL|     Max CFL|      rms[P]|  Cauchy[CD]|          CD|
+-----------------------------------------------------------------------------+
|        5210|  4.4344e+01|  4.4344e+01|   -9.275349|  1.4546e-05|    0.033303|
|        5220|  4.4344e+01|  4.4344e+01|   -9.277175|  1.4477e-05|    0.033289|
|        5230|  4.4344e+01|  4.4344e+01|   -9.278977|  1.4408e-05|    0.033276|
|        5240|  4.4344e+01|  4.4344e+01|   -9.280736|  1.4339e-05|    0.033262|
|        5250|  4.4344e+01|  4.4344e+01|   -9.282468|  1.4270e-05|    0.033249|
|        5260|  4.4344e+01|  4.4344e+01|   -9.284188|  1.4202e-05|    0.033235|
|        5270|  4.4344e+01|  4.4344e+01|   -9.285914|  1.4134e-05|    0.033222|
|        5280|  4.4344e+01|  4.4344e+01|   -9.287670|  1.4066e-05|    0.033209|
|        5290|  4.4344e+01|  4.4344e+01|   -9.289459|  1.3998e-05|    0.033196|
|        5300|  4.4344e+01|  4.4344e+01|   -9.291256|  1.3931e-05|    0.033182|
|        5310|  4.4344e+01|  4.4344e+01|   -9.293074|  1.3864e-05|    0.033169|
|        5320|  4.4344e+01|  4.4344e+01|   -9.294892|  1.3798e-05|    0.033156|
|        5330|  4.4344e+01|  4.4344e+01|   -9.296702|  1.3732e-05|    0.033143|
|        5340|  4.4344e+01|  4.4344e+01|   -9.298508|  1.3666e-05|    0.033130|
|        5350|  4.4344e+01|  4.4344e+01|   -9.300318|  1.3601e-05|    0.033118|
|        5360|  4.4344e+01|  4.4344e+01|   -9.302135|  1.3536e-05|    0.033105|
|        5370|  4.4344e+01|  4.4344e+01|   -9.303950|  1.3471e-05|    0.033092|
|        5380|  4.4344e+01|  4.4344e+01|   -9.305781|  1.3406e-05|    0.033079|
|        5390|  4.4344e+01|  4.4344e+01|   -9.307629|  1.3342e-05|    0.033067|
|        5400|  4.4344e+01|  4.4344e+01|   -9.309505|  1.3278e-05|    0.033054|
+-----------------------------------------------------------------------+
|        File Writing Summary       |              Filename             |
+-----------------------------------------------------------------------+
|SU2 binary restart                 |restart_flow_G6.dat                |
|Paraview                           |flow_G6.vtu                        |
|Paraview surface                   |surface_flow_G6.vtu                |
+-----------------------------------------------------------------------+
+-----------------------------------------------------------------------------+
|  Inner_Iter|     Min CFL|     Max CFL|      rms[P]|  Cauchy[CD]|          CD|
+-----------------------------------------------------------------------------+
|        5410|  4.4344e+01|  4.4344e+01|   -9.311386|  1.3214e-05|    0.033042|
|        5420|  4.4344e+01|  4.4344e+01|   -9.313284|  1.3151e-05|    0.033029|
|        5430|  4.4344e+01|  4.4344e+01|   -9.315185|  1.3088e-05|    0.033017|
|        5440|  4.4344e+01|  4.4344e+01|   -9.317076|  1.3026e-05|    0.033005|
|        5450|  4.4344e+01|  4.4344e+01|   -9.318988|  1.2963e-05|    0.032993|
|        5460|  4.4344e+01|  4.4344e+01|   -9.320897|  1.2901e-05|    0.032980|
|        5470|  4.4344e+01|  4.4344e+01|   -9.322815|  1.2839e-05|    0.032968|
|        5480|  4.4344e+01|  4.4344e+01|   -9.324713|  1.2777e-05|    0.032956|
|        5490|  4.4344e+01|  4.4344e+01|   -9.326617|  1.2715e-05|    0.032944|
|        5500|  4.4344e+01|  4.4344e+01|   -9.328523|  1.2654e-05|    0.032932|
|        5510|  4.4344e+01|  4.4344e+01|   -9.330417|  1.2593e-05|    0.032921|
|        5520|  4.4344e+01|  4.4344e+01|   -9.332309|  1.2533e-05|    0.032909|
|        5530|  4.4344e+01|  4.4344e+01|   -9.334206|  1.2473e-05|    0.032897|
|        5540|  4.4344e+01|  4.4344e+01|   -9.336096|  1.2413e-05|    0.032885|
|        5550|  4.4344e+01|  4.4344e+01|   -9.337979|  1.2354e-05|    0.032874|
|        5560|  4.4344e+01|  4.4344e+01|   -9.339840|  1.2294e-05|    0.032862|
|        5570|  4.4344e+01|  4.4344e+01|   -9.341689|  1.2235e-05|    0.032850|
|        5580|  4.4344e+01|  4.4344e+01|   -9.343519|  1.2176e-05|    0.032839|
|        5590|  4.4344e+01|  4.4344e+01|   -9.345360|  1.2117e-05|    0.032828|
|        5600|  4.4344e+01|  4.4344e+01|   -9.347187|  1.2059e-05|    0.032816|
+-----------------------------------------------------------------------+
|        File Writing Summary       |              Filename             |
+-----------------------------------------------------------------------+
|SU2 binary restart                 |restart_flow_G6.dat                |
|Paraview                           |flow_G6.vtu                        |
|Paraview surface                   |surface_flow_G6.vtu                |
+-----------------------------------------------------------------------+
+-----------------------------------------------------------------------------+
|  Inner_Iter|     Min CFL|     Max CFL|      rms[P]|  Cauchy[CD]|          CD|
+-----------------------------------------------------------------------------+
|        5610|  4.4344e+01|  4.4344e+01|   -9.349029|  1.2001e-05|    0.032805|
|        5620|  4.4344e+01|  4.4344e+01|   -9.350874|  1.1943e-05|    0.032794|
|        5630|  4.4344e+01|  4.4344e+01|   -9.352728|  1.1886e-05|    0.032782|
|        5640|  4.4344e+01|  4.4344e+01|   -9.354596|  1.1829e-05|    0.032771|
|        5650|  4.4344e+01|  4.4344e+01|   -9.356448|  1.1772e-05|    0.032760|
|        5660|  4.4344e+01|  4.4344e+01|   -9.358306|  1.1715e-05|    0.032749|
|        5670|  4.4344e+01|  4.4344e+01|   -9.360166|  1.1659e-05|    0.032738|
|        5680|  4.4344e+01|  4.4344e+01|   -9.362029|  1.1602e-05|    0.032727|
|        5690|  4.4344e+01|  4.4344e+01|   -9.363907|  1.1546e-05|    0.032716|
|        5700|  4.4344e+01|  4.4344e+01|   -9.365788|  1.1490e-05|    0.032705|
|        5710|  4.4344e+01|  4.4344e+01|   -9.367673|  1.1435e-05|    0.032695|
|        5720|  4.4344e+01|  4.4344e+01|   -9.369564|  1.1380e-05|    0.032684|
|        5730|  4.4344e+01|  4.4344e+01|   -9.371462|  1.1325e-05|    0.032673|
[...]
+-----------------------------------------------------------------------------+
|        8410|  4.4344e+01|  4.4344e+01|   -9.933856|  2.9355e-06|    0.031097|
|        8420|  4.4344e+01|  4.4344e+01|   -9.936097|  2.9204e-06|    0.031094|
|        8430|  4.4344e+01|  4.4344e+01|   -9.938335|  2.9054e-06|    0.031092|
|        8440|  4.4344e+01|  4.4344e+01|   -9.940572|  2.8905e-06|    0.031089|
|        8450|  4.4344e+01|  4.4344e+01|   -9.942809|  2.8757e-06|    0.031086|
|        8460|  4.4344e+01|  4.4344e+01|   -9.945049|  2.8609e-06|    0.031084|
|        8470|  4.4344e+01|  4.4344e+01|   -9.947289|  2.8463e-06|    0.031081|
|        8480|  4.4344e+01|  4.4344e+01|   -9.949531|  2.8317e-06|    0.031078|
|        8490|  4.4344e+01|  4.4344e+01|   -9.951775|  2.8172e-06|    0.031076|
|        8500|  4.4344e+01|  4.4344e+01|   -9.954013|  2.8028e-06|    0.031073|
|        8510|  4.4344e+01|  4.4344e+01|   -9.956256|  2.7885e-06|    0.031070|
|        8520|  4.4344e+01|  4.4344e+01|   -9.958498|  2.7742e-06|    0.031068|
|        8530|  4.4344e+01|  4.4344e+01|   -9.960736|  2.7600e-06|    0.031065|
|        8540|  4.4344e+01|  4.4344e+01|   -9.962974|  2.7459e-06|    0.031063|
|        8550|  4.4344e+01|  4.4344e+01|   -9.965210|  2.7319e-06|    0.031060|
|        8560|  4.4344e+01|  4.4344e+01|   -9.967445|  2.7179e-06|    0.031057|
|        8570|  4.4344e+01|  4.4344e+01|   -9.969679|  2.7040e-06|    0.031055|
|        8580|  4.4344e+01|  4.4344e+01|   -9.971914|  2.6903e-06|    0.031052|
|        8590|  4.4344e+01|  4.4344e+01|   -9.974151|  2.6765e-06|    0.031050|
|        8600|  4.4344e+01|  4.4344e+01|   -9.976391|  2.6629e-06|    0.031047|
+-----------------------------------------------------------------------+
|        File Writing Summary       |              Filename             |
+-----------------------------------------------------------------------+
|SU2 binary restart                 |restart_flow_G6.dat                |
|Paraview                           |flow_G6.vtu                        |
|Paraview surface                   |surface_flow_G6.vtu                |
+-----------------------------------------------------------------------+
+-----------------------------------------------------------------------------+
|  Inner_Iter|     Min CFL|     Max CFL|      rms[P]|  Cauchy[CD]|          CD|
+-----------------------------------------------------------------------------+
|        8610|  4.4344e+01|  4.4344e+01|   -9.978631|  2.6493e-06|    0.031045|
|        8620|  4.4344e+01|  4.4344e+01|   -9.980870|  2.6358e-06|    0.031042|
|        8630|  4.4344e+01|  4.4344e+01|   -9.983106|  2.6224e-06|    0.031040|
|        8640|  4.4344e+01|  4.4344e+01|   -9.985340|  2.6091e-06|    0.031037|
|        8650|  4.4344e+01|  4.4344e+01|   -9.987570|  2.5958e-06|    0.031035|
|        8660|  4.4344e+01|  4.4344e+01|   -9.989794|  2.5826e-06|    0.031033|
|        8670|  4.4344e+01|  4.4344e+01|   -9.992021|  2.5695e-06|    0.031030|
|        8680|  4.4344e+01|  4.4344e+01|   -9.994247|  2.5564e-06|    0.031028|
|        8690|  4.4344e+01|  4.4344e+01|   -9.996475|  2.5434e-06|    0.031025|
|        8700|  4.4344e+01|  4.4344e+01|   -9.998706|  2.5305e-06|    0.031023|
|        8710|  4.4344e+01|  4.4344e+01|  -10.000940|  2.5176e-06|    0.031021|
|        8720|  4.4344e+01|  4.4344e+01|  -10.003175|  2.5047e-06|    0.031018|
|        8730|  4.4344e+01|  4.4344e+01|  -10.005412|  2.4919e-06|    0.031016|
|        8740|  4.4344e+01|  4.4344e+01|  -10.007650|  2.4792e-06|    0.031014|
|        8750|  4.4344e+01|  4.4344e+01|  -10.009888|  2.4665e-06|    0.031011|
|        8760|  4.4344e+01|  4.4344e+01|  -10.012129|  2.4539e-06|    0.031009|
|        8770|  4.4344e+01|  4.4344e+01|  -10.014367|  2.4413e-06|    0.031007|
|        8780|  4.4344e+01|  4.4344e+01|  -10.016611|  2.4287e-06|    0.031004|
|        8790|  4.4344e+01|  4.4344e+01|  -10.018853|  2.4163e-06|    0.031002|
|        8800|  4.4344e+01|  4.4344e+01|  -10.021095|  2.4038e-06|    0.031000|
+-----------------------------------------------------------------------+
|        File Writing Summary       |              Filename             |
+-----------------------------------------------------------------------+
|SU2 binary restart                 |restart_flow_G6.dat                |
|Paraview                           |flow_G6.vtu                        |
|Paraview surface                   |surface_flow_G6.vtu                |
+-----------------------------------------------------------------------+
+-----------------------------------------------------------------------------+
|  Inner_Iter|     Min CFL|     Max CFL|      rms[P]|  Cauchy[CD]|          CD|
+-----------------------------------------------------------------------------+
|        8810|  4.4344e+01|  4.4344e+01|  -10.023339|  2.3915e-06|    0.030998|
|        8820|  4.4344e+01|  4.4344e+01|  -10.025590|  2.3792e-06|    0.030995|
|        8830|  4.4344e+01|  4.4344e+01|  -10.027838|  2.3669e-06|    0.030993|
|        8840|  4.4344e+01|  4.4344e+01|  -10.030093|  2.3548e-06|    0.030991|
|        8850|  4.4344e+01|  4.4344e+01|  -10.032352|  2.3426e-06|    0.030989|
|        8860|  4.4344e+01|  4.4344e+01|  -10.034615|  2.3306e-06|    0.030987|
|        8870|  4.4344e+01|  4.4344e+01|  -10.036880|  2.3186e-06|    0.030984|
|        8880|  4.4344e+01|  4.4344e+01|  -10.039145|  2.3067e-06|    0.030982|
|        8890|  5.3212e+01|  5.3212e+01|  -10.041409|  2.2948e-06|    0.030980|
|        8900|  2.7456e+01|  2.7456e+01|  -10.052804|  2.2296e-06|    0.030979|
|        8910|  1.4167e+01|  1.4167e+01|  -10.054483|  2.1703e-06|    0.030978|
|        8920|  7.3098e+00|  7.3098e+00|  -10.031649|  2.1210e-06|    0.030977|
|        8930|  4.5260e+01|  4.5260e+01|  -10.053896|  2.0614e-06|    0.030976|
|        8940|  4.5260e+01|  4.5260e+01|  -10.048230|  2.0511e-06|    0.030974|
|        8950|  4.5260e+01|  4.5260e+01|  -10.050393|  2.0419e-06|    0.030972|
|        8960|  4.5260e+01|  4.5260e+01|  -10.052619|  2.0324e-06|    0.030970|
|        8970|  4.5260e+01|  4.5260e+01|  -10.054680|  2.0238e-06|    0.030968|
|        8980|  4.5260e+01|  4.5260e+01|  -10.057003|  2.0158e-06|    0.030966|
|        8990|  4.5260e+01|  4.5260e+01|  -10.059380|  2.0081e-06|    0.030963|
|        9000|  4.5260e+01|  4.5260e+01|  -10.061501|  1.9997e-06|    0.030961|
+-----------------------------------------------------------------------+
|        File Writing Summary       |              Filename             |
+-----------------------------------------------------------------------+
|SU2 binary restart                 |restart_flow_G6.dat                |
|Paraview                           |flow_G6.vtu                        |
|Paraview surface                   |surface_flow_G6.vtu                |
+-----------------------------------------------------------------------+
+-----------------------------------------------------------------------------+
|  Inner_Iter|     Min CFL|     Max CFL|      rms[P]|  Cauchy[CD]|          CD|
+-----------------------------------------------------------------------------+
|        9010|  4.5260e+01|  4.5260e+01|  -10.063536|  1.9905e-06|    0.030959|
|        9020|  4.5260e+01|  4.5260e+01|  -10.065743|  1.9812e-06|    0.030957|
|        9030|  4.5260e+01|  4.5260e+01|  -10.068086|  1.9722e-06|    0.030955|
|        9040|  4.5260e+01|  4.5260e+01|  -10.070452|  1.9633e-06|    0.030953|
|        9050|  4.5260e+01|  4.5260e+01|  -10.072824|  1.9545e-06|    0.030951|
|        9060|  4.5260e+01|  4.5260e+01|  -10.075241|  1.9459e-06|    0.030949|
|        9070|  4.5260e+01|  4.5260e+01|  -10.077722|  1.9376e-06|    0.030947|
|        9080|  4.5260e+01|  4.5260e+01|  -10.080199|  1.9294e-06|    0.030945|
|        9090|  4.5260e+01|  4.5260e+01|  -10.082507|  1.9208e-06|    0.030943|
|        9100|  4.5260e+01|  4.5260e+01|  -10.084641|  1.9121e-06|    0.030941|
|        9110|  4.5260e+01|  4.5260e+01|  -10.086808|  1.9033e-06|    0.030939|
|        9120|  4.5260e+01|  4.5260e+01|  -10.089163|  1.8946e-06|    0.030937|
|        9130|  4.5260e+01|  4.5260e+01|  -10.091662|  1.8862e-06|    0.030935|
|        9140|  4.5260e+01|  4.5260e+01|  -10.094207|  1.8779e-06|    0.030933|
|        9150|  4.5260e+01|  4.5260e+01|  -10.096710|  1.9230e-06|    0.030931|
|        9160|  4.5260e+01|  4.5260e+01|  -10.099121|  1.9620e-06|    0.030929|
|        9170|  4.5260e+01|  4.5260e+01|  -10.101388|  1.9909e-06|    0.030927|
|        9180|  4.5260e+01|  4.5260e+01|  -10.103521|  2.0303e-06|    0.030925|
|        9190|  4.5260e+01|  4.5260e+01|  -10.105647|  2.0205e-06|    0.030924|
|        9200|  4.5260e+01|  4.5260e+01|  -10.107911|  2.0098e-06|    0.030922|
+-----------------------------------------------------------------------+
|        File Writing Summary       |              Filename             |
+-----------------------------------------------------------------------+
|SU2 binary restart                 |restart_flow_G6.dat                |
|Paraview                           |flow_G6.vtu                        |
|Paraview surface                   |surface_flow_G6.vtu                |
+-----------------------------------------------------------------------+
+-----------------------------------------------------------------------------+
|  Inner_Iter|     Min CFL|     Max CFL|      rms[P]|  Cauchy[CD]|          CD|
+-----------------------------------------------------------------------------+
|        9210|  4.5260e+01|  4.5260e+01|  -10.110375|  1.9994e-06|    0.030920|
|        9220|  4.5260e+01|  4.5260e+01|  -10.112980|  1.9883e-06|    0.030918|
|        9230|  4.5260e+01|  4.5260e+01|  -10.115584|  1.9767e-06|    0.030916|
|        9240|  4.5260e+01|  4.5260e+01|  -10.118060|  1.9647e-06|    0.030914|
|        9250|  4.5260e+01|  4.5260e+01|  -10.120349|  1.9535e-06|    0.030912|
|        9260|  4.5260e+01|  4.5260e+01|  -10.122483|  1.9431e-06|    0.030911|
|        9270|  4.5260e+01|  4.5260e+01|  -10.124578|  1.9329e-06|    0.030909|
|        9280|  4.5260e+01|  4.5260e+01|  -10.126772|  1.9226e-06|    0.030907|
|        9290|  4.5260e+01|  4.5260e+01|  -10.129151|  1.9123e-06|    0.030905|
|        9300|  4.5260e+01|  4.5260e+01|  -10.131678|  1.9020e-06|    0.030903|
|        9310|  4.5260e+01|  4.5260e+01|  -10.134239|  1.8914e-06|    0.030902|
|        9320|  4.5260e+01|  4.5260e+01|  -10.136705|  1.8808e-06|    0.030900|
|        9330|  4.5260e+01|  4.5260e+01|  -10.139012|  1.8701e-06|    0.030898|
|        9340|  4.5260e+01|  4.5260e+01|  -10.141185|  1.8598e-06|    0.030896|
|        9350|  4.5260e+01|  4.5260e+01|  -10.143322|  1.8497e-06|    0.030895|
|        9360|  4.5260e+01|  4.5260e+01|  -10.145542|  1.8398e-06|    0.030893|
|        9370|  4.5260e+01|  4.5260e+01|  -10.147895|  1.8299e-06|    0.030891|
|        9380|  4.5260e+01|  4.5260e+01|  -10.150350|  1.8198e-06|    0.030890|
|        9390|  4.5260e+01|  4.5260e+01|  -10.152838|  1.8096e-06|    0.030888|
|        9400|  4.5260e+01|  4.5260e+01|  -10.155255|  1.7996e-06|    0.030886|
+-----------------------------------------------------------------------+
|        File Writing Summary       |              Filename             |
+-----------------------------------------------------------------------+
|SU2 binary restart                 |restart_flow_G6.dat                |
|Paraview                           |flow_G6.vtu                        |
|Paraview surface                   |surface_flow_G6.vtu                |
+-----------------------------------------------------------------------+
+-----------------------------------------------------------------------------+
|  Inner_Iter|     Min CFL|     Max CFL|      rms[P]|  Cauchy[CD]|          CD|
+-----------------------------------------------------------------------------+
|        9410|  4.5260e+01|  4.5260e+01|  -10.157567|  1.7898e-06|    0.030885|
|        9420|  4.5260e+01|  4.5260e+01|  -10.159790|  1.7802e-06|    0.030883|
|        9430|  4.5260e+01|  4.5260e+01|  -10.161983|  1.7706e-06|    0.030881|
|        9440|  4.5260e+01|  4.5260e+01|  -10.164212|  1.7610e-06|    0.030880|
|        9450|  4.5260e+01|  4.5260e+01|  -10.166518|  1.7514e-06|    0.030878|
|        9460|  4.5260e+01|  4.5260e+01|  -10.168896|  1.7420e-06|    0.030876|
|        9470|  4.5260e+01|  4.5260e+01|  -10.171294|  1.7324e-06|    0.030875|
|        9480|  4.5260e+01|  4.5260e+01|  -10.173666|  1.7229e-06|    0.030873|
|        9490|  4.5260e+01|  4.5260e+01|  -10.175978|  1.7135e-06|    0.030871|
|        9500|  4.5260e+01|  4.5260e+01|  -10.178237|  1.7044e-06|    0.030870|
|        9510|  4.5260e+01|  4.5260e+01|  -10.180478|  1.6953e-06|    0.030868|
|        9520|  4.5260e+01|  4.5260e+01|  -10.182745|  1.6862e-06|    0.030867|
|        9530|  4.5260e+01|  4.5260e+01|  -10.185054|  1.6772e-06|    0.030865|
|        9540|  4.5260e+01|  4.5260e+01|  -10.187392|  1.6682e-06|    0.030864|
|        9550|  4.5260e+01|  4.5260e+01|  -10.189746|  1.6592e-06|    0.030862|
|        9560|  4.5260e+01|  4.5260e+01|  -10.192085|  1.6503e-06|    0.030860|
|        9570|  4.5260e+01|  4.5260e+01|  -10.194395|  1.6414e-06|    0.030859|
|        9580|  4.5260e+01|  4.5260e+01|  -10.196673|  1.6326e-06|    0.030857|
|        9590|  4.5260e+01|  4.5260e+01|  -10.198947|  1.6239e-06|    0.030856|
|        9600|  4.5260e+01|  4.5260e+01|  -10.201225|  1.6152e-06|    0.030854|
+-----------------------------------------------------------------------+
|        File Writing Summary       |              Filename             |
+-----------------------------------------------------------------------+
|SU2 binary restart                 |restart_flow_G6.dat                |
|Paraview                           |flow_G6.vtu                        |
|Paraview surface                   |surface_flow_G6.vtu                |
+-----------------------------------------------------------------------+
+-----------------------------------------------------------------------------+
|  Inner_Iter|     Min CFL|     Max CFL|      rms[P]|  Cauchy[CD]|          CD|
+-----------------------------------------------------------------------------+
|        9610|  4.5260e+01|  4.5260e+01|  -10.203519|  1.6066e-06|    0.030853|
|        9620|  4.5260e+01|  4.5260e+01|  -10.205829|  1.5980e-06|    0.030851|
|        9630|  4.5260e+01|  4.5260e+01|  -10.208146|  1.5895e-06|    0.030850|
|        9640|  4.5260e+01|  4.5260e+01|  -10.210467|  1.5810e-06|    0.030848|
|        9650|  4.5260e+01|  4.5260e+01|  -10.212787|  1.5726e-06|    0.030847|
|        9660|  4.5260e+01|  4.5260e+01|  -10.215101|  1.5642e-06|    0.030845|
|        9670|  4.5260e+01|  4.5260e+01|  -10.217428|  1.5558e-06|    0.030844|
|        9680|  4.5260e+01|  4.5260e+01|  -10.219749|  1.5475e-06|    0.030843|
|        9690|  4.5260e+01|  4.5260e+01|  -10.222069|  1.5393e-06|    0.030841|
|        9700|  4.5260e+01|  4.5260e+01|  -10.224385|  1.5310e-06|    0.030840|
|        9710|  4.5260e+01|  4.5260e+01|  -10.226698|  1.5228e-06|    0.030838|
|        9720|  4.5260e+01|  4.5260e+01|  -10.229010|  1.5147e-06|    0.030837|
|        9730|  4.5260e+01|  4.5260e+01|  -10.231325|  1.5066e-06|    0.030835|
|        9740|  4.5260e+01|  4.5260e+01|  -10.233648|  1.4986e-06|    0.030834|
|        9750|  4.5260e+01|  4.5260e+01|  -10.235978|  1.4906e-06|    0.030833|
|        9760|  4.5260e+01|  4.5260e+01|  -10.238315|  1.4826e-06|    0.030831|
|        9770|  4.5260e+01|  4.5260e+01|  -10.240656|  1.4746e-06|    0.030830|
|        9780|  4.5260e+01|  4.5260e+01|  -10.242993|  1.4667e-06|    0.030828|
|        9790|  4.5260e+01|  4.5260e+01|  -10.245324|  1.4588e-06|    0.030827|
|        9800|  4.5260e+01|  4.5260e+01|  -10.247654|  1.4509e-06|    0.030826|
+-----------------------------------------------------------------------+
|        File Writing Summary       |              Filename             |
+-----------------------------------------------------------------------+
|SU2 binary restart                 |restart_flow_G6.dat                |
|Paraview                           |flow_G6.vtu                        |
|Paraview surface                   |surface_flow_G6.vtu                |
+-----------------------------------------------------------------------+
+-----------------------------------------------------------------------------+
|  Inner_Iter|     Min CFL|     Max CFL|      rms[P]|  Cauchy[CD]|          CD|
+-----------------------------------------------------------------------------+
|        9810|  4.5260e+01|  4.5260e+01|  -10.249981|  1.4431e-06|    0.030824|
|        9820|  4.5260e+01|  4.5260e+01|  -10.252312|  1.4354e-06|    0.030823|
|        9830|  4.5260e+01|  4.5260e+01|  -10.254651|  1.4277e-06|    0.030822|
|        9840|  4.5260e+01|  4.5260e+01|  -10.256997|  1.4200e-06|    0.030820|
|        9850|  4.5260e+01|  4.5260e+01|  -10.259349|  1.4124e-06|    0.030819|
|        9860|  4.5260e+01|  4.5260e+01|  -10.261704|  1.4048e-06|    0.030818|
|        9870|  4.5260e+01|  4.5260e+01|  -10.264054|  1.3972e-06|    0.030816|
|        9880|  4.5260e+01|  4.5260e+01|  -10.266400|  1.3897e-06|    0.030815|
|        9890|  4.5260e+01|  4.5260e+01|  -10.268741|  1.3822e-06|    0.030814|
|        9900|  4.5260e+01|  4.5260e+01|  -10.271080|  1.3748e-06|    0.030813|
|        9910|  4.5260e+01|  4.5260e+01|  -10.273422|  1.3674e-06|    0.030811|
|        9920|  4.5260e+01|  4.5260e+01|  -10.275769|  1.3601e-06|    0.030810|
|        9930|  4.5260e+01|  4.5260e+01|  -10.278119|  1.3528e-06|    0.030809|
|        9940|  4.5260e+01|  4.5260e+01|  -10.280478|  1.3455e-06|    0.030807|
|        9950|  4.5260e+01|  4.5260e+01|  -10.282842|  1.3383e-06|    0.030806|
|        9960|  4.5260e+01|  4.5260e+01|  -10.285207|  1.3312e-06|    0.030805|
|        9970|  4.5260e+01|  4.5260e+01|  -10.287569|  1.3240e-06|    0.030804|
|        9980|  4.5260e+01|  4.5260e+01|  -10.289934|  1.3170e-06|    0.030802|
|        9990|  4.5260e+01|  4.5260e+01|  -10.292293|  1.3099e-06|    0.030801|
|        9998|  4.5260e+01|  4.5260e+01|  -10.294181|  1.3043e-06|    0.030800|

----------------------------- Solver Exit -------------------------------

Maximum number of iterations reached (ITER = 9999) before convergence.
+-----------------------------------------------------------------------+
|      Convergence Field     |     Value    |   Criterion  |  Converged |
+-----------------------------------------------------------------------+
|                      rms[P]|      -10.2942|          < -9|         Yes|
|                  Cauchy[CD]|   1.30433e-06|       < 1e-06|          No|
+-----------------------------------------------------------------------+
-------------------------------------------------------------------------
+-----------------------------------------------------------------------+
|        File Writing Summary       |              Filename             |
+-----------------------------------------------------------------------+
|SU2 binary restart                 |restart_flow_G6.dat                |
|Paraview                           |flow_G6.vtu                        |
|Paraview surface                   |surface_flow_G6.vtu                |
+-----------------------------------------------------------------------+

------------------------- Solver Postprocessing -------------------------
Deleted CNumerics container.
Deleted CIntegration container.
Deleted CSolver container.
Deleted CIteration container.
Deleted CInterface container.
Deleted CGeometry container.
Deleted CFreeFormDefBox class.
Deleted CSurfaceMovement class.
Deleted CVolumetricMovement class.
Deleted CConfig container.
Deleted nInst container.
Deleted COutput class.
-------------------------------------------------------------------------

------------------------- Exit Success (SU2_CFD) ------------------------

