
-------------------------------------------------------------------------
|    ___ _   _ ___                                                      |
|   / __| | | |_  )   Release 7.4.0 "Blackbird"                         |
|   \__ \ |_| |/ /                                                      |
|   |___/\___//___|   Suite (Computational Fluid Dynamics Code)         |
|                                                                       |
-------------------------------------------------------------------------
| SU2 Project Website: https://su2code.github.io                        |
|                                                                       |
| The SU2 Project is maintained by the SU2 Foundation                   |
| (http://su2foundation.org)                                            |
-------------------------------------------------------------------------
| Copyright 2012-2022, SU2 Contributors                                 |
|                                                                       |
| SU2 is free software; you can redistribute it and/or                  |
| modify it under the terms of the GNU Lesser General Public            |
| License as published by the Free Software Foundation; either          |
| version 2.1 of the License, or (at your option) any later version.    |
|                                                                       |
| SU2 is distributed in the hope that it will be useful,                |
| but WITHOUT ANY WARRANTY; without even the implied warranty of        |
| MERCHANTABILITY or FITNESS FOR A PARTICULAR PURPOSE. See the GNU      |
| Lesser General Public License for more details.                       |
|                                                                       |
| You should have received a copy of the GNU Lesser General Public      |
| License along with SU2. If not, see <http://www.gnu.org/licenses/>.   |
-------------------------------------------------------------------------

Parsing config file for zone 0

----------------- Physical Case Definition ( Zone 0 ) -------------------
Incompressible RANS equations.
Turbulence model: Menter's k-omega SST-2003m with no production modification.
Hybrid RANS/LES: No Hybrid RANS/LES
Reading and writing binary SU2 native restart files.
Read flow solution from: ../../../O1/caseG6/cfdG6/restart_flow_G6.dat.
Non-Dimensional simulation using intialization values.
The reference area is 1 m^2.
The semi-span will be computed using the max y(3D) value.
The reference length is 1.00898 m.
Reference origin for moment evaluation is (-0.756, 0, 0).
Surface(s) where the force coefficients are evaluated: AIRFOIL.

Surface(s) plotted in the output file: AIRFOIL.
Input mesh file name: ../meshG6/meshG6.su2

--------------- Space Numerical Integration ( Zone 0 ) ------------------
Flux difference splitting (FDS) upwind scheme for the flow inviscid terms.
Second order integration in space, with slope limiter.
Venkatakrishnan slope-limiting method, with constant: 0.0466.
The reference element size is: 1. 
Average of gradients with correction (viscous flow terms).
Average of gradients with correction (viscous turbulence terms).
Gradient for upwind reconstruction: unweighted Least-Squares.
Gradient for viscous and source terms: Green-Gauss.

--------------- Time Numerical Integration  ( Zone 0 ) ------------------
Local time stepping (steady state simulation).
Euler implicit method for the flow equations.
FGMRES is used for solving the linear system.
Using a ILU(0) preconditioning.
Convergence criteria of the linear solver: 1e-06.
Max number of linear iterations: 10.
CFL adaptation. Factor down: 0.1, factor up: 1.2,
                lower limit: 1, upper limit: 1000,
                acceptable linear residual: 0.001.
Courant-Friedrichs-Lewy number:        2
Euler implicit time integration for the turbulence model.

------------------ Convergence Criteria  ( Zone 0 ) ---------------------
Maximum number of solver subiterations: 20000.
Begin convergence monitoring at iteration 10.
Residual minimum value: 1e-9.
Cauchy series min. value: 1e-06.
Number of Cauchy elements: 250.
Begin windowed time average at iteration 0.

-------------------- Output Information ( Zone 0 ) ----------------------
File writing frequency: 
+------------------------------------+
|                     File| Frequency|
+------------------------------------+
|                  RESTART|       200|
|                 PARAVIEW|       200|
|         SURFACE_PARAVIEW|       200|
+------------------------------------+
Writing the convergence history file every 1 inner iterations.
Writing the screen convergence history every 10 inner iterations.
The tabular file format is CSV (.csv).
Convergence history file name: history_G6.
Forces breakdown file name: forces_breakdown.dat.
Surface file name: surface_flow_G6.
Volume file name: flow_G6.
Restart file name: restart_flow_G6.dat.

------------- Config File Boundary Information ( Zone 0 ) ---------------
+-----------------------------------------------------------------------+
|                        Marker Type|                        Marker Name|
+-----------------------------------------------------------------------+
|                          Far-field|                           FARFIELD|
+-----------------------------------------------------------------------+
|                     Heat flux wall|                            AIRFOIL|
+-----------------------------------------------------------------------+

-------------------- Output Preprocessing ( Zone 0 ) --------------------

WARNING: SURFACE_PRESSURE_DROP can only be computed for at least 2 surfaces (outlet, inlet, ...)

Screen output fields: INNER_ITER, MIN_CFL, MAX_CFL, RMS_PRESSURE, CAUCHY_DRAG, DRAG
History output group(s): INNER_ITER, MIN_CFL, MAX_CFL, RMS_RES, LIFT, DRAG, MOMENT_Z, CAUCHY
Convergence field(s): RMS_PRESSURE, DRAG
Warning: No (valid) fields chosen for time convergence monitoring. Time convergence monitoring inactive.
Volume output fields: COORDINATES, SOLUTION, PRIMITIVE, RESIDUAL, MESH_QUALITY

------------------- Geometry Preprocessing ( Zone 0 ) -------------------
Two dimensional problem.
519958 grid points before partitioning.
518400 volume elements before partitioning.
2 surface markers.
868 boundary elements in index 0 (Marker = AIRFOIL).
2248 boundary elements in index 1 (Marker = FARFIELD).
Executing the partitioning functions.
Building the graph adjacency structure.
Calling ParMETIS... graph partitioning complete (5042 edge cuts).
Distributing ParMETIS coloring.
Rebalancing vertices.
Rebalancing volume element connectivity.
Rebalancing markers and surface elements.
530066 vertices including ghost points. 
523442 interior elements including halo cells. 
523442 quadrilaterals.
Establishing MPI communication patterns.
Setting point connectivity.
Renumbering points (Reverse Cuthill McKee Ordering).
Recomputing point connectivity.
Setting element connectivity.
Checking the numerical grid orientation.
All volume elements are correctly orientend.
There has been a re-orientation of 1564 LINE surface elements.
Identifying edges and vertices.
Setting the control volume structure.
Area of the computational grid: 102806.
Searching for the closest normal neighbors to the surfaces.
Storing a mapping from global to local point index.
Compute the surface curvature.
Max K: 2.29749e+06. Mean K: 6302.15. Standard deviation K: 82954.5.
Checking for periodicity.
Computing mesh quality statistics for the dual control volumes.
+--------------------------------------------------------------+
|           Mesh Quality Metric|        Minimum|        Maximum|
+--------------------------------------------------------------+
|    Orthogonality Angle (deg.)|        73.7004|             90|
|     CV Face Area Aspect Ratio|        1.00001|    8.13327e+06|
|           CV Sub-Volume Ratio|              1|        1213.46|
+--------------------------------------------------------------+
Finding max control volume width.
Communicating number of neighbors.
Wetted area = 2.05974 m.
Area projection in the x-plane = 0.121116 m, y-plane = 1.00883 m.
Max. coordinate in the x-direction = 1.00898 m, y-direction = 0.0759843 m.
Min. coordinate in the x-direction = 2.43301e-06 m, y-direction = -0.0451351 m.
Computing wall distances.

-------------------- Solver Preprocessing ( Zone 0 ) --------------------
 Warning: There is no restart file (flow.meta).
 Computation will continue without updating metadata parameters.
Incompressible flow: rho_ref, vel_ref, and temp_ref
are based on the initial values, p_ref = rho_ref*vel_ref^2.
Force coefficients computed using initial values.
The reference area for force coeffs. is 1 m^2.
The reference length for force coeffs. is 1.00898 m.
The pressure is decomposed into thermodynamic and dynamic components.
The initial value of the dynamic pressure is 0.
Mach number: 0.0276747, computed using the Bulk modulus.
For external flows, the initial state is imposed at the far-field.
Angle of attack (deg): 14, computed using the initial velocity.
Side slip angle (deg): 0, computed using the initial velocity.
Reynolds number per meter: 594999, computed using initial values.
Reynolds number is a byproduct of inputs only (not used internally).
SI units only. The grid should be dimensional (meters).
No energy equation.

-- Models:
+------------------------------------------------------------------------------+
|          Viscosity Model|        Conductivity Model|              Fluid Model|
+------------------------------------------------------------------------------+
|       CONSTANT_VISCOSITY|          CONSTANT_PRANDTL|         CONSTANT_DENSITY|
+------------------------------------------------------------------------------+
-- Fluid properties:
+------------------------------------------------------------------------------+
|                  Name|    Dim. value|    Ref. value|      Unit|Non-dim. value|
+------------------------------------------------------------------------------+
|             Viscosity|      1.92e-05|        11.424|   N.s/m^2|   1.68067e-06|
+------------------------------------------------------------------------------+
|        Prandtl (Lam.)|             -|             -|         -|          0.72|
|       Prandtl (Turb.)|             -|             -|         -|           0.9|
+------------------------------------------------------------------------------+
|          Bulk Modulus|        142000|             1|        Pa|        142000|
+------------------------------------------------------------------------------+
-- Initial and free-stream conditions:
+------------------------------------------------------------------------------+
|                  Name|    Dim. value|    Ref. value|      Unit|Non-dim. value|
+------------------------------------------------------------------------------+
|      Dynamic Pressure|             0|       108.756|        Pa|             0|
|        Total Pressure|       54.3781|       108.756|        Pa|           0.5|
|               Density|           1.2|           1.2|    kg/m^3|             1|
|            Velocity-X|        9.2372|       9.51999|       m/s|      0.970296|
|            Velocity-Y|        2.3031|       9.51999|       m/s|      0.241923|
|    Velocity Magnitude|       9.51999|       9.51999|       m/s|             1|
+------------------------------------------------------------------------------+
|             Viscosity|      1.92e-05|        11.424|   N.s/m^2|   1.68067e-06|
|          Conductivity|             -|       3.59312|   W/m^2.K|             -|
|     Turb. Kin. Energy|       1.35945|       90.6301|   m^2/s^2|         0.015|
|     Spec. Dissipation|       8496.58|       9.51999|       1/s|       892.499|
+------------------------------------------------------------------------------+
|           Mach Number|             -|             -|         -|     0.0276747|
|       Reynolds Number|             -|             -|         -|        594999|
+------------------------------------------------------------------------------+
Initialize Jacobian structure (Navier-Stokes). MG level: 0.
Initialize Jacobian structure (SST model).

------------------- Numerics Preprocessing ( Zone 0 ) -------------------

----------------- Integration Preprocessing ( Zone 0 ) ------------------

------------------- Iteration Preprocessing ( Zone 0 ) ------------------
Euler/Navier-Stokes/RANS fluid iteration.

------------------------------ Begin Solver -----------------------------

Simulation Run using the Single-zone Driver
+-----------------------------------------------------------------------------+
|  Inner_Iter|     Min CFL|     Max CFL|      rms[P]|  Cauchy[CD]|          CD|
+-----------------------------------------------------------------------------+
|           0|  2.4000e+00|  2.4000e+00|   -6.574698|  1.0000e+00|    0.093324|
|          10|  1.4860e+01|  1.4860e+01|   -6.597729|  8.3074e-05|    0.091247|
|          20|  7.6675e+00|  7.6675e+00|   -6.925829|  8.0864e-04|    0.073108|
|          30|  4.7475e+01|  4.7475e+01|   -6.982759|  1.4215e-03|    0.057787|
|          40|  2.4496e+01|  2.4496e+01|   -7.022751|  1.6271e-03|    0.052647|
|          50|  1.0533e+01|  1.0533e+01|   -6.989274|  1.6712e-03|    0.051587|
|          60|  5.4348e+00|  5.4348e+00|   -6.951183|  1.7232e-03|    0.052885|
|          70|  3.3651e+01|  3.3651e+01|   -6.954502|  1.7680e-03|    0.054006|
|          80|  1.2058e+01|  1.2058e+01|   -6.956576|  1.7991e-03|    0.054782|
|          90|  6.2215e+00|  6.2215e+00|   -6.941567|  1.8077e-03|    0.054998|
|         100|  3.8522e+01|  3.8522e+01|   -6.972423|  1.8129e-03|    0.055127|
|         110|  1.0000e+00|  1.0000e+00|   -7.022744|  1.8191e-03|    0.054992|
|         120|  1.0000e+00|  1.0000e+00|   -6.995984|  1.8198e-03|    0.054973|
|         130|  1.0000e+00|  1.0000e+00|   -7.022612|  1.8207e-03|    0.054952|
|         140|  5.1598e+00|  5.1598e+00|   -7.030229|  1.8227e-03|    0.054902|
|         150|  3.1948e+01|  3.1948e+01|   -7.028191|  1.8413e-03|    0.054436|
|         160|  1.6484e+01|  1.6484e+01|   -7.036289|  1.8887e-03|    0.053250|
|         170|  4.9222e+01|  4.9222e+01|   -7.011001|  1.9386e-03|    0.052003|
|         180|  1.7637e+01|  1.7637e+01|   -7.073704|  1.9566e-03|    0.052451|
|         190|  5.2665e+01|  5.2665e+01|   -7.077405|  2.0183e-03|    0.053995|
|         200|  5.2665e+01|  5.2665e+01|   -7.130717|  2.0541e-03|    0.054284|
+-----------------------------------------------------------------------+
|        File Writing Summary       |              Filename             |
+-----------------------------------------------------------------------+
|SU2 binary restart                 |restart_flow_G6.dat                |
|Paraview                           |flow_G6.vtu                        |
|Paraview surface                   |surface_flow_G6.vtu                |
+-----------------------------------------------------------------------+
+-----------------------------------------------------------------------------+
|  Inner_Iter|     Min CFL|     Max CFL|      rms[P]|  Cauchy[CD]|          CD|
+-----------------------------------------------------------------------------+
|         210|  2.2645e+01|  2.2645e+01|   -7.170643|  2.0924e-03|    0.053325|
|         220|  1.1684e+01|  1.1684e+01|   -7.161128|  2.1446e-03|    0.052021|
|         230|  6.0288e+00|  6.0288e+00|   -7.183369|  2.1929e-03|    0.050814|
|         240|  3.7329e+01|  3.7329e+01|   -7.202448|  2.2189e-03|    0.050161|
|         250|  1.3376e+01|  1.3376e+01|   -7.194021|  2.2477e-03|    0.049442|
|         260|  6.9015e+00|  6.9015e+00|   -7.174252|  2.1832e-03|    0.048978|
|         270|  3.5610e+00|  3.5610e+00|   -7.189170|  1.4678e-03|    0.048725|
|         280|  2.2049e+01|  2.2049e+01|   -7.202894|  8.5650e-04|    0.048685|
|         290|  1.1377e+01|  1.1377e+01|   -7.217284|  6.5583e-04|    0.048808|
|         300|  5.8702e+00|  5.8702e+00|   -7.206625|  6.3101e-04|    0.049292|
|         310|  3.6346e+01|  3.6346e+01|   -7.192184|  6.0173e-04|    0.049859|
|         320|  1.8754e+01|  1.8754e+01|   -7.180902|  5.7565e-04|    0.050327|
|         330|  9.6766e+00|  9.6766e+00|   -7.177979|  5.7117e-04|    0.050992|
|         340|  4.9929e+00|  4.9929e+00|   -7.186028|  5.8266e-04|    0.051494|
|         350|  3.0915e+01|  3.0915e+01|   -7.185896|  5.8046e-04|    0.051540|
|         360|  1.5951e+01|  1.5951e+01|   -7.181312|  5.8759e-04|    0.051207|
|         370|  3.3077e+01|  3.3077e+01|   -7.177566|  6.4080e-04|    0.049858|
|         380|  6.8588e+00|  6.8588e+00|   -7.220560|  6.9934e-04|    0.048373|
|         390|  4.2468e+01|  4.2468e+01|   -7.242976|  7.3146e-04|    0.047520|
|         400|  2.1913e+01|  2.1913e+01|   -7.248466|  7.2915e-04|    0.047111|
+-----------------------------------------------------------------------+
|        File Writing Summary       |              Filename             |
+-----------------------------------------------------------------------+
|SU2 binary restart                 |restart_flow_G6.dat                |
|Paraview                           |flow_G6.vtu                        |
|Paraview surface                   |surface_flow_G6.vtu                |
+-----------------------------------------------------------------------+
+-----------------------------------------------------------------------------+
|  Inner_Iter|     Min CFL|     Max CFL|      rms[P]|  Cauchy[CD]|          CD|
+-----------------------------------------------------------------------------+
|         410|  1.1306e+01|  1.1306e+01|   -7.237341|  6.8936e-04|    0.046921|
|         420|  5.8339e+00|  5.8339e+00|   -7.226452|  6.4436e-04|    0.047037|
|         430|  3.6122e+01|  3.6122e+01|   -7.225840|  6.3986e-04|    0.047373|
|         440|  1.8638e+01|  1.8638e+01|   -7.231327|  5.9119e-04|    0.047701|
|         450|  4.6377e+00|  4.6377e+00|   -7.249627|  5.8781e-04|    0.048509|
|         460|  2.8716e+01|  2.8716e+01|   -7.249361|  5.5691e-04|    0.048695|
|         470|  1.4817e+01|  1.4817e+01|   -7.249175|  5.0716e-04|    0.048755|
|         480|  7.6450e+00|  7.6450e+00|   -7.245205|  4.6371e-04|    0.048634|
|         490|  3.9447e+01|  3.9447e+01|   -7.235366|  4.5238e-04|    0.048265|
|         500|  2.0354e+01|  2.0354e+01|   -7.224024|  4.3847e-04|    0.047893|
|         510|  6.0776e+00|  6.0776e+00|   -7.220808|  4.3686e-04|    0.047470|
|         520|  3.7631e+01|  3.7631e+01|   -7.227613|  4.3340e-04|    0.047303|
|         530|  1.9417e+01|  1.9417e+01|   -7.237459|  4.3390e-04|    0.047251|
|         540|  1.0019e+01|  1.0019e+01|   -7.245209|  4.2963e-04|    0.047252|
|         550|  5.1694e+00|  5.1694e+00|   -7.239066|  4.1116e-04|    0.047274|
|         560|  3.2007e+01|  3.2007e+01|   -7.233472|  3.8918e-04|    0.047257|
|         570|  5.5309e+00|  5.5309e+00|   -7.235834|  3.7919e-04|    0.047038|
|         580|  3.4246e+01|  3.4246e+01|   -7.240185|  3.6105e-04|    0.046827|
|         590|  1.4725e+01|  1.4725e+01|   -7.249149|  3.5677e-04|    0.046432|
|         600|  3.6640e+00|  3.6640e+00|   -7.260304|  3.7623e-04|    0.045871|
+-----------------------------------------------------------------------+
|        File Writing Summary       |              Filename             |
+-----------------------------------------------------------------------+
|SU2 binary restart                 |restart_flow_G6.dat                |
|Paraview                           |flow_G6.vtu                        |
|Paraview surface                   |surface_flow_G6.vtu                |
+-----------------------------------------------------------------------+
+-----------------------------------------------------------------------------+
|  Inner_Iter|     Min CFL|     Max CFL|      rms[P]|  Cauchy[CD]|          CD|
+-----------------------------------------------------------------------------+
|         610|  2.2687e+01|  2.2687e+01|   -7.269931|  3.6957e-04|    0.045704|
|         620|  1.1706e+01|  1.1706e+01|   -7.287456|  3.2556e-04|    0.045455|
|         630|  6.0400e+00|  6.0400e+00|   -7.295852|  2.7644e-04|    0.045198|
|         640|  3.7398e+01|  3.7398e+01|   -7.297453|  2.4841e-04|    0.045046|
|         650|  1.3400e+01|  1.3400e+01|   -7.294341|  2.3641e-04|    0.044937|
|         660|  6.9143e+00|  6.9143e+00|   -7.286384|  2.3101e-04|    0.044882|
|         670|  3.5676e+01|  3.5676e+01|   -7.286636|  2.2723e-04|    0.044906|
|         680|  3.5676e+01|  3.5676e+01|   -7.280652|  2.2254e-04|    0.045125|
|         690|  1.2783e+01|  1.2783e+01|   -7.278342|  2.1450e-04|    0.045251|
|         700|  6.5960e+00|  6.5960e+00|   -7.273729|  1.8439e-04|    0.045306|
|         710|  4.0841e+01|  4.0841e+01|   -7.272743|  1.7914e-04|    0.045251|
|         720|  2.1073e+01|  2.1073e+01|   -7.272502|  1.8079e-04|    0.045150|
|         730|  1.0873e+01|  1.0873e+01|   -7.276012|  1.8308e-04|    0.044971|
|         740|  3.2467e+01|  3.2467e+01|   -7.290636|  1.8317e-04|    0.044600|
|         750|  1.6752e+01|  1.6752e+01|   -7.307367|  1.7752e-04|    0.044369|
|         760|  8.6438e+00|  8.6438e+00|   -7.325820|  1.7303e-04|    0.044058|
|         770|  3.7167e+00|  3.7167e+00|   -7.333387|  1.7898e-04|    0.043743|
|         780|  2.3013e+01|  2.3013e+01|   -7.330801|  1.8172e-04|    0.043622|
|         790|  1.1874e+01|  1.1874e+01|   -7.320293|  1.8779e-04|    0.043454|
|         800|  6.1267e+00|  6.1267e+00|   -7.302620|  1.9266e-04|    0.043311|
+-----------------------------------------------------------------------+
|        File Writing Summary       |              Filename             |
+-----------------------------------------------------------------------+
|SU2 binary restart                 |restart_flow_G6.dat                |
|Paraview                           |flow_G6.vtu                        |
|Paraview surface                   |surface_flow_G6.vtu                |
+-----------------------------------------------------------------------+
+-----------------------------------------------------------------------------+
|  Inner_Iter|     Min CFL|     Max CFL|      rms[P]|  Cauchy[CD]|          CD|
+-----------------------------------------------------------------------------+
|         810|  3.7935e+01|  3.7935e+01|   -7.294680|  1.9420e-04|    0.043255|
|         820|  1.9574e+01|  1.9574e+01|   -7.293321|  1.8586e-04|    0.043249|
|         830|  1.0100e+01|  1.0100e+01|   -7.308877|  1.7969e-04|    0.043306|
|         840|  4.3426e+01|  4.3426e+01|   -7.337976|  1.6783e-04|    0.043405|
|         850|  1.5560e+01|  1.5560e+01|   -7.368187|  1.4731e-04|    0.043453|
|         860|  3.8719e+01|  3.8719e+01|   -7.378959|  1.4265e-04|    0.043414|
|         870|  1.9978e+01|  1.9978e+01|   -7.372968|  1.3560e-04|    0.043340|
|         880|  4.1427e+01|  4.1427e+01|   -7.360734|  1.3337e-04|    0.043140|
|         890|  1.4844e+01|  1.4844e+01|   -7.361995|  1.3043e-04|    0.043061|
|         900|  7.6592e+00|  7.6592e+00|   -7.364596|  1.2862e-04|    0.042998|
|         910|  3.9520e+01|  3.9520e+01|   -7.375039|  1.2815e-04|    0.042954|
|         920|  2.0391e+01|  2.0391e+01|   -7.385394|  1.2861e-04|    0.042914|
|         930|  1.0522e+01|  1.0522e+01|   -7.393368|  1.2289e-04|    0.042838|
|         940|  5.4289e+00|  5.4289e+00|   -7.402836|  1.2188e-04|    0.042738|
|         950|  3.3614e+01|  3.3614e+01|   -7.409978|  1.2258e-04|    0.042664|
|         960|  4.8404e+01|  4.8404e+01|   -7.445889|  1.2920e-04|    0.042443|
|         970|  2.4976e+01|  2.4976e+01|   -7.455608|  1.2839e-04|    0.042363|
|         980|  1.2887e+01|  1.2887e+01|   -7.452172|  1.2547e-04|    0.042257|
|         990|  4.6176e+01|  4.6176e+01|   -7.436789|  1.1371e-04|    0.042180|
|        1000|  4.6176e+01|  4.6176e+01|   -7.452900|  1.0941e-04|    0.042300|
+-----------------------------------------------------------------------+
|        File Writing Summary       |              Filename             |
+-----------------------------------------------------------------------+
|SU2 binary restart                 |restart_flow_G6.dat                |
|Paraview                           |flow_G6.vtu                        |
|Paraview surface                   |surface_flow_G6.vtu                |
+-----------------------------------------------------------------------+
+-----------------------------------------------------------------------------+
|  Inner_Iter|     Min CFL|     Max CFL|      rms[P]|  Cauchy[CD]|          CD|
+-----------------------------------------------------------------------------+
|        1010|  1.6546e+01|  1.6546e+01|   -7.474925|  1.0165e-04|    0.042417|
|        1020|  4.1171e+01|  4.1171e+01|   -7.497887|  9.5803e-05|    0.042587|
|        1030|  4.1171e+01|  4.1171e+01|   -7.526809|  9.3913e-05|    0.042580|
|        1040|  2.1243e+01|  2.1243e+01|   -7.536770|  9.0399e-05|    0.042500|
|        1050|  1.0961e+01|  1.0961e+01|   -7.536376|  9.0782e-05|    0.042347|
|        1060|  5.6557e+00|  5.6557e+00|   -7.524220|  9.4516e-05|    0.042198|
|        1070|  3.5018e+01|  3.5018e+01|   -7.515153|  9.7178e-05|    0.042121|
|        1080|  7.2614e+00|  7.2614e+00|   -7.501253|  9.8654e-05|    0.042027|
|        1090|  4.4961e+01|  4.4961e+01|   -7.511758|  9.5664e-05|    0.042003|
|        1100|  2.3199e+01|  2.3199e+01|   -7.530083|  9.4144e-05|    0.041993|
|        1110|  1.1970e+01|  1.1970e+01|   -7.567066|  9.2831e-05|    0.041976|
|        1120|  6.1763e+00|  6.1763e+00|   -7.601498|  9.1658e-05|    0.041932|
|        1130|  3.8242e+01|  3.8242e+01|   -7.606750|  8.5398e-05|    0.041888|
|        1140|  7.9299e+00|  7.9299e+00|   -7.569031|  8.6895e-05|    0.041771|
|        1150|  4.9100e+01|  4.9100e+01|   -7.559159|  8.7192e-05|    0.041701|
|        1160|  2.5334e+01|  2.5334e+01|   -7.557131|  8.7173e-05|    0.041657|
|        1170|  1.3072e+01|  1.3072e+01|   -7.572281|  8.7156e-05|    0.041618|
|        1180|  6.7448e+00|  6.7448e+00|   -7.606579|  8.5323e-05|    0.041588|
|        1190|  4.1762e+01|  4.1762e+01|   -7.651404|  8.1888e-05|    0.041573|
|        1200|  2.1548e+01|  2.1548e+01|   -7.700308|  7.9465e-05|    0.041561|
+-----------------------------------------------------------------------+
|        File Writing Summary       |              Filename             |
+-----------------------------------------------------------------------+
|SU2 binary restart                 |restart_flow_G6.dat                |
|Paraview                           |flow_G6.vtu                        |
|Paraview surface                   |surface_flow_G6.vtu                |
+-----------------------------------------------------------------------+
+-----------------------------------------------------------------------------+
|  Inner_Iter|     Min CFL|     Max CFL|      rms[P]|  Cauchy[CD]|          CD|
+-----------------------------------------------------------------------------+
|        1210|  7.7212e+00|  7.7212e+00|   -7.695628|  7.2129e-05|    0.041523|
|        1220|  4.7808e+01|  4.7808e+01|   -7.686927|  7.0556e-05|    0.041482|
|        1230|  2.4668e+01|  2.4668e+01|   -7.664450|  6.7960e-05|    0.041441|
|        1240|  4.2626e+01|  4.2626e+01|   -7.647703|  7.0704e-05|    0.041295|
|        1250|  1.2728e+01|  1.2728e+01|   -7.683572|  7.0191e-05|    0.041185|
|        1260|  6.5674e+00|  6.5674e+00|   -7.715214|  6.9752e-05|    0.041079|
|        1270|  4.0663e+01|  4.0663e+01|   -7.734371|  6.5258e-05|    0.041022|
|        1280|  1.0118e+01|  1.0118e+01|   -7.744498|  6.5172e-05|    0.040951|
|        1290|  1.0000e+00|  1.0000e+00|   -7.749824|  6.2165e-05|    0.040946|
|        1300|  1.0000e+00|  1.0000e+00|   -7.753124|  5.6117e-05|    0.040944|
|        1310|  1.7280e+00|  1.7280e+00|   -7.753775|  5.0211e-05|    0.040942|
|        1320|  1.0699e+01|  1.0699e+01|   -7.754531|  4.7372e-05|    0.040936|
|        1330|  5.5206e+00|  5.5206e+00|   -7.748380|  4.4263e-05|    0.040921|
|        1340|  3.4182e+01|  3.4182e+01|   -7.752548|  4.3491e-05|    0.040916|
|        1350|  4.9222e+01|  4.9222e+01|   -7.743246|  4.3544e-05|    0.040905|
|        1360|  2.5398e+01|  2.5398e+01|   -7.742365|  4.3065e-05|    0.040899|
|        1370|  9.1004e+00|  9.1004e+00|   -7.730539|  4.1578e-05|    0.040892|
|        1380|  4.6956e+01|  4.6956e+01|   -7.762712|  4.0077e-05|    0.040897|
|        1390|  4.6956e+01|  4.6956e+01|   -7.844330|  3.8672e-05|    0.040979|
|        1400|  6.7617e+00|  6.7617e+00|   -7.845231|  4.2329e-05|    0.041141|
+-----------------------------------------------------------------------+
|        File Writing Summary       |              Filename             |
+-----------------------------------------------------------------------+
|SU2 binary restart                 |restart_flow_G6.dat                |
|Paraview                           |flow_G6.vtu                        |
|Paraview surface                   |surface_flow_G6.vtu                |
+-----------------------------------------------------------------------+
+-----------------------------------------------------------------------------+
|  Inner_Iter|     Min CFL|     Max CFL|      rms[P]|  Cauchy[CD]|          CD|
+-----------------------------------------------------------------------------+
|        1410|  4.1867e+01|  4.1867e+01|   -7.841402|  4.3469e-05|    0.041213|
|        1420|  1.8002e+01|  1.8002e+01|   -7.835229|  4.5709e-05|    0.041308|
|        1430|  9.2886e+00|  9.2886e+00|   -7.810362|  4.7248e-05|    0.041377|
|        1440|  4.7927e+01|  4.7927e+01|   -7.858088|  4.8297e-05|    0.041417|
|        1450|  2.0608e+01|  2.0608e+01|   -7.890860|  4.8456e-05|    0.041434|
|        1460|  1.0633e+01|  1.0633e+01|   -7.890647|  4.7446e-05|    0.041446|
|        1470|  5.4865e+00|  5.4865e+00|   -7.889175|  4.5979e-05|    0.041451|
|        1480|  3.3971e+01|  3.3971e+01|   -7.895625|  4.4404e-05|    0.041452|
|        1490|  1.0000e+00|  1.0000e+00|   -7.883652|  3.8605e-05|    0.041451|
|        1500|  1.0000e+00|  1.0000e+00|   -7.894572|  3.4195e-05|    0.041451|
|        1510|  1.0000e+00|  1.0000e+00|   -7.896916|  2.9961e-05|    0.041451|
|        1520|  3.5832e+00|  3.5832e+00|   -7.899295|  2.7690e-05|    0.041450|
|        1530|  2.2186e+01|  2.2186e+01|   -7.902401|  2.4942e-05|    0.041448|
|        1540|  1.1448e+01|  1.1448e+01|   -7.911631|  2.5042e-05|    0.041441|
|        1550|  5.9067e+00|  5.9067e+00|   -7.917949|  2.5709e-05|    0.041422|
|        1560|  3.6573e+01|  3.6573e+01|   -7.923040|  2.6271e-05|    0.041407|
|        1570|  1.8871e+01|  1.8871e+01|   -7.923798|  2.6728e-05|    0.041389|
|        1580|  9.7369e+00|  9.7369e+00|   -7.919989|  2.7171e-05|    0.041362|
|        1590|  4.1867e+01|  4.1867e+01|   -7.928608|  2.8201e-05|    0.041331|
|        1600|  4.1867e+01|  4.1867e+01|   -7.965744|  2.9586e-05|    0.041286|
+-----------------------------------------------------------------------+
|        File Writing Summary       |              Filename             |
+-----------------------------------------------------------------------+
|SU2 binary restart                 |restart_flow_G6.dat                |
|Paraview                           |flow_G6.vtu                        |
|Paraview surface                   |surface_flow_G6.vtu                |
+-----------------------------------------------------------------------+
+-----------------------------------------------------------------------------+
|  Inner_Iter|     Min CFL|     Max CFL|      rms[P]|  Cauchy[CD]|          CD|
+-----------------------------------------------------------------------------+
|        1610|  4.1867e+01|  4.1867e+01|   -7.995552|  3.0966e-05|    0.041246|
|        1620|  4.1867e+01|  4.1867e+01|   -8.004942|  3.2892e-05|    0.041191|
|        1630|  4.1867e+01|  4.1867e+01|   -8.029130|  3.6257e-05|    0.041100|
|        1640|  4.1867e+01|  4.1867e+01|   -8.075955|  3.8159e-05|    0.040971|
|        1650|  4.1867e+01|  4.1867e+01|   -8.109375|  3.7601e-05|    0.040823|
|        1660|  4.1867e+01|  4.1867e+01|   -8.081726|  4.0240e-05|    0.040685|
|        1670|  4.1867e+01|  4.1867e+01|   -8.039151|  4.0700e-05|    0.040579|
|        1680|  4.1867e+01|  4.1867e+01|   -8.040699|  4.0613e-05|    0.040512|
|        1690|  4.1867e+01|  4.1867e+01|   -8.074533|  4.0101e-05|    0.040484|
|        1700|  1.2501e+01|  1.2501e+01|   -8.110782|  3.9543e-05|    0.040483|
|        1710|  6.4504e+00|  6.4504e+00|   -8.035253|  3.9399e-05|    0.040492|
|        1720|  3.9939e+01|  3.9939e+01|   -8.090734|  3.9645e-05|    0.040503|
|        1730|  2.0608e+01|  2.0608e+01|   -8.090739|  4.0125e-05|    0.040516|
|        1740|  1.0633e+01|  1.0633e+01|   -8.059647|  4.0937e-05|    0.040537|
|        1750|  5.4865e+00|  5.4865e+00|   -8.069335|  4.1832e-05|    0.040560|
|        1760|  3.3971e+01|  3.3971e+01|   -8.101579|  4.2406e-05|    0.040574|
|        1770|  1.0000e+00|  1.0000e+00|   -8.094136|  4.2967e-05|    0.040589|
|        1780|  1.0000e+00|  1.0000e+00|   -8.112651|  4.2906e-05|    0.040590|
|        1790|  1.0000e+00|  1.0000e+00|   -8.115619|  4.2643e-05|    0.040591|
|        1800|  2.9860e+00|  2.9860e+00|   -8.122487|  4.1962e-05|    0.040592|
+-----------------------------------------------------------------------+
|        File Writing Summary       |              Filename             |
+-----------------------------------------------------------------------+
|SU2 binary restart                 |restart_flow_G6.dat                |
|Paraview                           |flow_G6.vtu                        |
|Paraview surface                   |surface_flow_G6.vtu                |
+-----------------------------------------------------------------------+
+-----------------------------------------------------------------------------+
|  Inner_Iter|     Min CFL|     Max CFL|      rms[P]|  Cauchy[CD]|          CD|
+-----------------------------------------------------------------------------+
|        1810|  1.8488e+01|  1.8488e+01|   -8.133912|  4.1594e-05|    0.040598|
|        1820|  4.6005e+01|  4.6005e+01|   -8.096418|  4.2013e-05|    0.040626|
|        1830|  4.6005e+01|  4.6005e+01|   -8.056448|  4.1834e-05|    0.040648|
|        1840|  2.3738e+01|  2.3738e+01|   -8.069831|  4.0851e-05|    0.040655|
|        1850|  4.9222e+01|  4.9222e+01|   -8.021822|  3.9431e-05|    0.040665|
|        1860|  4.9222e+01|  4.9222e+01|   -8.044705|  3.7947e-05|    0.040667|
|        1870|  4.9222e+01|  4.9222e+01|   -8.082265|  3.5927e-05|    0.040663|
|        1880|  4.9222e+01|  4.9222e+01|   -8.101524|  3.2910e-05|    0.040648|
|        1890|  1.4698e+01|  1.4698e+01|   -8.164673|  2.8261e-05|    0.040635|
|        1900|  7.5837e+00|  7.5837e+00|   -8.087100|  2.2880e-05|    0.040621|
|        1910|  4.6956e+01|  4.6956e+01|   -8.182763|  1.8027e-05|    0.040605|
|        1920|  4.6956e+01|  4.6956e+01|   -8.194944|  1.5914e-05|    0.040551|
|        1930|  4.6956e+01|  4.6956e+01|   -8.186086|  1.5910e-05|    0.040484|
|        1940|  4.6956e+01|  4.6956e+01|   -8.179276|  1.7920e-05|    0.040406|
|        1950|  4.6956e+01|  4.6956e+01|   -8.207068|  2.1233e-05|    0.040321|
|        1960|  5.6348e+00|  5.6348e+00|   -8.241813|  2.3995e-05|    0.040243|
|        1970|  3.4889e+01|  3.4889e+01|   -8.270892|  2.4540e-05|    0.040218|
|        1980|  1.8002e+01|  1.8002e+01|   -8.277671|  2.5210e-05|    0.040189|
|        1990|  4.4794e+01|  4.4794e+01|   -8.253213|  2.6523e-05|    0.040134|
|        2000|  4.4794e+01|  4.4794e+01|   -8.256429|  2.7836e-05|    0.040079|
+-----------------------------------------------------------------------+
|        File Writing Summary       |              Filename             |
+-----------------------------------------------------------------------+
|SU2 binary restart                 |restart_flow_G6.dat                |
|Paraview                           |flow_G6.vtu                        |
|Paraview surface                   |surface_flow_G6.vtu                |
+-----------------------------------------------------------------------+
+-----------------------------------------------------------------------------+
|  Inner_Iter|     Min CFL|     Max CFL|      rms[P]|  Cauchy[CD]|          CD|
+-----------------------------------------------------------------------------+
|        2010|  4.4794e+01|  4.4794e+01|   -8.267219|  2.8885e-05|    0.040038|
|        2020|  4.4794e+01|  4.4794e+01|   -8.254972|  2.9509e-05|    0.040009|
|        2030|  9.2886e+00|  9.2886e+00|   -8.189854|  3.0184e-05|    0.039991|
|        2040|  4.7927e+00|  4.7927e+00|   -8.221425|  3.0509e-05|    0.039982|
|        2050|  2.9675e+01|  2.9675e+01|   -8.225493|  3.0642e-05|    0.039977|
|        2060|  1.5312e+01|  1.5312e+01|   -8.219988|  3.0679e-05|    0.039970|
|        2070|  7.9005e+00|  7.9005e+00|   -8.171031|  2.9902e-05|    0.039961|
|        2080|  4.8918e+01|  4.8918e+01|   -8.222068|  2.9259e-05|    0.039955|
|        2090|  4.8918e+01|  4.8918e+01|   -8.218513|  2.9562e-05|    0.039941|
|        2100|  4.8918e+01|  4.8918e+01|   -8.222918|  2.9415e-05|    0.039935|
|        2110|  4.8918e+01|  4.8918e+01|   -8.240383|  2.9452e-05|    0.039937|
|        2120|  4.8918e+01|  4.8918e+01|   -8.269310|  2.9881e-05|    0.039953|
|        2130|  4.8918e+01|  4.8918e+01|   -8.288137|  3.0279e-05|    0.039978|
|        2140|  4.8918e+01|  4.8918e+01|   -8.294034|  3.0778e-05|    0.040003|
|        2150|  4.8918e+01|  4.8918e+01|   -8.302932|  3.0860e-05|    0.040019|
|        2160|  4.8918e+01|  4.8918e+01|   -8.314115|  3.0343e-05|    0.040019|
|        2170|  4.8918e+01|  4.8918e+01|   -8.317841|  2.8733e-05|    0.040006|
|        2180|  4.8918e+01|  4.8918e+01|   -8.321278|  2.6965e-05|    0.039984|
|        2190|  4.8918e+01|  4.8918e+01|   -8.334694|  2.4831e-05|    0.039959|
|        2200|  4.8918e+01|  4.8918e+01|   -8.352651|  2.2414e-05|    0.039934|
+-----------------------------------------------------------------------+
|        File Writing Summary       |              Filename             |
+-----------------------------------------------------------------------+
|SU2 binary restart                 |restart_flow_G6.dat                |
|Paraview                           |flow_G6.vtu                        |
|Paraview surface                   |surface_flow_G6.vtu                |
+-----------------------------------------------------------------------+
+-----------------------------------------------------------------------------+
|  Inner_Iter|     Min CFL|     Max CFL|      rms[P]|  Cauchy[CD]|          CD|
+-----------------------------------------------------------------------------+
|        2210|  4.8918e+01|  4.8918e+01|   -8.364450|  2.0359e-05|    0.039907|
|        2220|  4.8918e+01|  4.8918e+01|   -8.368451|  2.0658e-05|    0.039875|
|        2230|  4.8918e+01|  4.8918e+01|   -8.366160|  2.1122e-05|    0.039834|
|        2240|  4.8918e+01|  4.8918e+01|   -8.358863|  2.1013e-05|    0.039782|
|        2250|  4.8918e+01|  4.8918e+01|   -8.353727|  2.1061e-05|    0.039726|
|        2260|  4.8918e+01|  4.8918e+01|   -8.358993|  2.1547e-05|    0.039673|
|        2270|  4.8918e+01|  4.8918e+01|   -8.375354|  2.1994e-05|    0.039632|
|        2280|  1.2172e+01|  1.2172e+01|   -8.406620|  2.1939e-05|    0.039615|
|        2290|  6.2807e+00|  6.2807e+00|   -8.401169|  2.1901e-05|    0.039607|
|        2300|  3.8888e+01|  3.8888e+01|   -8.421275|  2.1904e-05|    0.039603|
|        2310|  4.6666e+01|  4.6666e+01|   -8.422676|  2.1756e-05|    0.039599|
|        2320|  4.6666e+01|  4.6666e+01|   -8.427211|  2.1661e-05|    0.039605|
|        2330|  4.6666e+01|  4.6666e+01|   -8.422491|  2.1828e-05|    0.039616|
|        2340|  4.6666e+01|  4.6666e+01|   -8.415912|  2.1658e-05|    0.039625|
|        2350|  4.6666e+01|  4.6666e+01|   -8.413489|  2.1697e-05|    0.039633|
|        2360|  1.6721e+01|  1.6721e+01|   -8.434163|  2.1668e-05|    0.039636|
|        2370|  8.6278e+00|  8.6278e+00|   -8.389367|  2.1216e-05|    0.039640|
|        2380|  5.3421e+01|  5.3421e+01|   -8.431070|  2.0311e-05|    0.039642|
|        2390|  2.7564e+01|  2.7564e+01|   -8.445730|  1.9330e-05|    0.039643|
|        2400|  1.1852e+01|  1.1852e+01|   -8.441351|  1.8803e-05|    0.039645|
+-----------------------------------------------------------------------+
|        File Writing Summary       |              Filename             |
+-----------------------------------------------------------------------+
|SU2 binary restart                 |restart_flow_G6.dat                |
|Paraview                           |flow_G6.vtu                        |
|Paraview surface                   |surface_flow_G6.vtu                |
+-----------------------------------------------------------------------+
+-----------------------------------------------------------------------------+
|  Inner_Iter|     Min CFL|     Max CFL|      rms[P]|  Cauchy[CD]|          CD|
+-----------------------------------------------------------------------------+
|        2410|  6.1154e+00|  6.1154e+00|   -8.438576|  1.8744e-05|    0.039645|
|        2420|  3.7865e+01|  3.7865e+01|   -8.457641|  1.8239e-05|    0.039645|
|        2430|  1.0000e+00|  1.0000e+00|   -8.464403|  1.7403e-05|    0.039643|
|        2440|  1.0000e+00|  1.0000e+00|   -8.453969|  1.6410e-05|    0.039643|
|        2450|  1.0000e+00|  1.0000e+00|   -8.462027|  1.5416e-05|    0.039643|
|        2460|  1.0000e+00|  1.0000e+00|   -8.464526|  1.4368e-05|    0.039643|
|        2470|  2.0736e+00|  2.0736e+00|   -8.467206|  1.3105e-05|    0.039642|
|        2480|  1.2839e+01|  1.2839e+01|   -8.470310|  1.1501e-05|    0.039641|
|        2490|  6.6247e+00|  6.6247e+00|   -8.444913|  9.5788e-06|    0.039638|
|        2500|  4.1019e+01|  4.1019e+01|   -8.460712|  7.5632e-06|    0.039632|
|        2510|  4.9222e+01|  4.9222e+01|   -8.437922|  6.3901e-06|    0.039608|
|        2520|  5.9067e+01|  5.9067e+01|   -8.426713|  6.1550e-06|    0.039573|
|        2530|  3.0477e+01|  3.0477e+01|   -8.441174|  6.1737e-06|    0.039556|
|        2540|  1.5726e+01|  1.5726e+01|   -8.440636|  6.6051e-06|    0.039537|
|        2550|  8.1140e+00|  8.1140e+00|   -8.386150|  7.5868e-06|    0.039508|
|        2560|  5.0240e+01|  5.0240e+01|   -8.427871|  8.4132e-06|    0.039484|
|        2570|  5.0240e+01|  5.0240e+01|   -8.411721|  1.0516e-05|    0.039425|
|        2580|  5.0240e+01|  5.0240e+01|   -8.408292|  1.2262e-05|    0.039371|
|        2590|  6.0288e+00|  6.0288e+00|   -8.405951|  1.3665e-05|    0.039326|
|        2600|  3.7329e+01|  3.7329e+01|   -8.421109|  1.3920e-05|    0.039312|
+-----------------------------------------------------------------------+
|        File Writing Summary       |              Filename             |
+-----------------------------------------------------------------------+
|SU2 binary restart                 |restart_flow_G6.dat                |
|Paraview                           |flow_G6.vtu                        |
|Paraview surface                   |surface_flow_G6.vtu                |
+-----------------------------------------------------------------------+
+-----------------------------------------------------------------------------+
|  Inner_Iter|     Min CFL|     Max CFL|      rms[P]|  Cauchy[CD]|          CD|
+-----------------------------------------------------------------------------+
|        2610|  1.9261e+01|  1.9261e+01|   -8.422599|  1.4468e-05|    0.039296|
|        2620|  4.7927e+01|  4.7927e+01|   -8.409711|  1.5498e-05|    0.039266|
|        2630|  4.7927e+01|  4.7927e+01|   -8.409333|  1.6697e-05|    0.039234|
|        2640|  4.7927e+01|  4.7927e+01|   -8.413228|  1.7734e-05|    0.039207|
|        2650|  4.7927e+01|  4.7927e+01|   -8.420534|  1.8575e-05|    0.039184|
|        2660|  1.4311e+01|  1.4311e+01|   -8.435413|  1.8917e-05|    0.039173|
|        2670|  7.3841e+00|  7.3841e+00|   -8.414230|  1.9247e-05|    0.039164|
|        2680|  4.5721e+01|  4.5721e+01|   -8.444646|  1.9488e-05|    0.039156|
|        2690|  4.5721e+01|  4.5721e+01|   -8.443061|  2.0054e-05|    0.039142|
|        2700|  4.5721e+01|  4.5721e+01|   -8.448574|  2.0492e-05|    0.039131|
|        2710|  2.3591e+01|  2.3591e+01|   -8.464716|  2.0664e-05|    0.039126|
|        2720|  1.2172e+01|  1.2172e+01|   -8.467698|  2.0785e-05|    0.039123|
|        2730|  6.2807e+00|  6.2807e+00|   -8.457142|  2.1000e-05|    0.039116|
|        2740|  3.8888e+01|  3.8888e+01|   -8.473855|  2.1104e-05|    0.039110|
|        2750|  1.3934e+00|  1.3934e+00|   -8.475451|  2.1242e-05|    0.039101|
|        2760|  1.0000e+00|  1.0000e+00|   -8.463857|  2.0322e-05|    0.039100|
|        2770|  1.7280e+00|  1.7280e+00|   -8.473656|  1.8938e-05|    0.039099|
|        2780|  1.0699e+01|  1.0699e+01|   -8.483510|  1.8361e-05|    0.039097|
|        2790|  5.5206e+00|  5.5206e+00|   -8.468439|  1.8070e-05|    0.039085|
|        2800|  1.0000e+00|  1.0000e+00|   -8.448072|  1.6950e-05|    0.039084|
+-----------------------------------------------------------------------+
|        File Writing Summary       |              Filename             |
+-----------------------------------------------------------------------+
|SU2 binary restart                 |restart_flow_G6.dat                |
|Paraview                           |flow_G6.vtu                        |
|Paraview surface                   |surface_flow_G6.vtu                |
+-----------------------------------------------------------------------+
+-----------------------------------------------------------------------------+
|  Inner_Iter|     Min CFL|     Max CFL|      rms[P]|  Cauchy[CD]|          CD|
+-----------------------------------------------------------------------------+
|        2810|  2.0736e+00|  2.0736e+00|   -8.457613|  1.6005e-05|    0.039083|
|        2820|  2.9860e+00|  2.9860e+00|   -8.468375|  1.3697e-05|    0.039082|
|        2830|  1.8488e+01|  1.8488e+01|   -8.485546|  1.1736e-05|    0.039077|
|        2840|  9.5396e+00|  9.5396e+00|   -8.432479|  1.0473e-05|    0.039064|
|        2850|  4.9222e+01|  4.9222e+01|   -8.476102|  1.0537e-05|    0.039049|
|        2860|  4.9222e+01|  4.9222e+01|   -8.467785|  1.1321e-05|    0.039013|
|        2870|  4.9222e+01|  4.9222e+01|   -8.471542|  1.1724e-05|    0.038973|
|        2880|  4.9222e+01|  4.9222e+01|   -8.477117|  1.2206e-05|    0.038928|
|        2890|  4.9222e+01|  4.9222e+01|   -8.483166|  1.2964e-05|    0.038883|
|        2900|  4.9222e+01|  4.9222e+01|   -8.489769|  1.3811e-05|    0.038838|
|        2910|  4.9222e+01|  4.9222e+01|   -8.497611|  1.5175e-05|    0.038793|
|        2920|  4.9222e+01|  4.9222e+01|   -8.506737|  1.6663e-05|    0.038747|
|        2930|  4.9222e+01|  4.9222e+01|   -8.516949|  1.8233e-05|    0.038700|
|        2940|  4.9222e+01|  4.9222e+01|   -8.528041|  1.9462e-05|    0.038655|
|        2950|  4.9222e+01|  4.9222e+01|   -8.539375|  2.0717e-05|    0.038613|
|        2960|  7.0880e+00|  7.0880e+00|   -8.507267|  2.1866e-05|    0.038579|
|        2970|  4.3887e+01|  4.3887e+01|   -8.575390|  2.2302e-05|    0.038565|
|        2980|  2.2645e+01|  2.2645e+01|   -8.585467|  2.2599e-05|    0.038551|
|        2990|  4.6956e+01|  4.6956e+01|   -8.566788|  2.3580e-05|    0.038521|
|        3000|  4.6956e+01|  4.6956e+01|   -8.568984|  2.4583e-05|    0.038486|
+-----------------------------------------------------------------------+
|        File Writing Summary       |              Filename             |
+-----------------------------------------------------------------------+
|SU2 binary restart                 |restart_flow_G6.dat                |
|Paraview                           |flow_G6.vtu                        |
|Paraview surface                   |surface_flow_G6.vtu                |
+-----------------------------------------------------------------------+
+-----------------------------------------------------------------------------+
|  Inner_Iter|     Min CFL|     Max CFL|      rms[P]|  Cauchy[CD]|          CD|
+-----------------------------------------------------------------------------+
|        3010|  4.6956e+01|  4.6956e+01|   -8.567533|  2.5870e-05|    0.038453|
|        3020|  4.6956e+01|  4.6956e+01|   -8.561827|  2.7188e-05|    0.038420|
|        3030|  5.6348e+00|  5.6348e+00|   -8.554489|  2.8519e-05|    0.038384|
|        3040|  3.4889e+01|  3.4889e+01|   -8.568659|  2.8515e-05|    0.038372|
|        3050|  1.8002e+01|  1.8002e+01|   -8.567655|  2.9001e-05|    0.038359|
|        3060|  9.2886e+00|  9.2886e+00|   -8.515727|  2.9728e-05|    0.038340|
|        3070|  4.7927e+01|  4.7927e+01|   -8.547955|  3.0412e-05|    0.038322|
|        3080|  8.2818e+00|  8.2818e+00|   -8.498174|  3.1450e-05|    0.038291|
|        3090|  5.1279e+01|  5.1279e+01|   -8.538539|  3.1542e-05|    0.038276|
|        3100|  2.6459e+01|  2.6459e+01|   -8.544202|  3.1387e-05|    0.038264|
|        3110|  1.3652e+01|  1.3652e+01|   -8.542282|  3.0656e-05|    0.038246|
|        3120|  1.0000e+00|  1.0000e+00|   -8.528243|  2.9138e-05|    0.038244|
|        3130|  1.0000e+00|  1.0000e+00|   -8.538455|  2.7393e-05|    0.038244|
|        3140|  1.0000e+00|  1.0000e+00|   -8.539677|  2.5603e-05|    0.038243|
|        3150|  4.2998e+00|  4.2998e+00|   -8.543284|  2.3889e-05|    0.038241|
|        3160|  2.6623e+01|  2.6623e+01|   -8.540548|  2.2443e-05|    0.038232|
|        3170|  1.3737e+01|  1.3737e+01|   -8.536640|  2.1345e-05|    0.038213|
|        3180|  4.9222e+01|  4.9222e+01|   -8.514127|  2.0576e-05|    0.038186|
|        3190|  4.9222e+01|  4.9222e+01|   -8.507665|  2.0496e-05|    0.038143|
|        3200|  4.9222e+01|  4.9222e+01|   -8.503093|  2.0550e-05|    0.038099|
+-----------------------------------------------------------------------+
|        File Writing Summary       |              Filename             |
+-----------------------------------------------------------------------+
|SU2 binary restart                 |restart_flow_G6.dat                |
|Paraview                           |flow_G6.vtu                        |
|Paraview surface                   |surface_flow_G6.vtu                |
+-----------------------------------------------------------------------+
+-----------------------------------------------------------------------------+
|  Inner_Iter|     Min CFL|     Max CFL|      rms[P]|  Cauchy[CD]|          CD|
+-----------------------------------------------------------------------------+
|        3210|  4.9222e+01|  4.9222e+01|   -8.499167|  2.1061e-05|    0.038053|
|        3220|  4.9222e+01|  4.9222e+01|   -8.497439|  2.2394e-05|    0.038005|
|        3230|  4.9222e+01|  4.9222e+01|   -8.497479|  2.3726e-05|    0.037958|
|        3240|  4.9222e+01|  4.9222e+01|   -8.498547|  2.4354e-05|    0.037912|
|        3250|  4.9222e+01|  4.9222e+01|   -8.501213|  2.4809e-05|    0.037866|
|        3260|  4.9222e+01|  4.9222e+01|   -8.505178|  2.5383e-05|    0.037819|
|        3270|  4.9222e+01|  4.9222e+01|   -8.510486|  2.5944e-05|    0.037771|
|        3280|  4.9222e+01|  4.9222e+01|   -8.517121|  2.6375e-05|    0.037725|
|        3290|  4.9222e+01|  4.9222e+01|   -8.524125|  2.7716e-05|    0.037680|
|        3300|  4.9222e+01|  4.9222e+01|   -8.530797|  2.8944e-05|    0.037636|
|        3310|  4.9222e+01|  4.9222e+01|   -8.537164|  2.9899e-05|    0.037593|
|        3320|  4.9222e+01|  4.9222e+01|   -8.543665|  3.0825e-05|    0.037552|
|        3330|  4.9222e+01|  4.9222e+01|   -8.551037|  3.1194e-05|    0.037511|
|        3340|  4.9222e+01|  4.9222e+01|   -8.559807|  3.2177e-05|    0.037471|
|        3350|  4.9222e+01|  4.9222e+01|   -8.570008|  3.3324e-05|    0.037431|
|        3360|  4.9222e+01|  4.9222e+01|   -8.581196|  3.4232e-05|    0.037391|
|        3370|  4.9222e+01|  4.9222e+01|   -8.592715|  3.5782e-05|    0.037350|
|        3380|  4.9222e+01|  4.9222e+01|   -8.604091|  3.7385e-05|    0.037309|
|        3390|  4.9222e+01|  4.9222e+01|   -8.615234|  3.9016e-05|    0.037267|
|        3400|  4.9222e+01|  4.9222e+01|   -8.626545|  4.0662e-05|    0.037224|
+-----------------------------------------------------------------------+
|        File Writing Summary       |              Filename             |
+-----------------------------------------------------------------------+
|SU2 binary restart                 |restart_flow_G6.dat                |
|Paraview                           |flow_G6.vtu                        |
|Paraview surface                   |surface_flow_G6.vtu                |
+-----------------------------------------------------------------------+
+-----------------------------------------------------------------------------+
|  Inner_Iter|     Min CFL|     Max CFL|      rms[P]|  Cauchy[CD]|          CD|
+-----------------------------------------------------------------------------+
|        3410|  4.9222e+01|  4.9222e+01|   -8.638616|  4.2063e-05|    0.037181|
|        3420|  4.9222e+01|  4.9222e+01|   -8.651615|  4.3099e-05|    0.037136|
|        3430|  4.9222e+01|  4.9222e+01|   -8.664984|  4.3812e-05|    0.037091|
|        3440|  4.9222e+01|  4.9222e+01|   -8.677742|  4.3901e-05|    0.037045|
|        3450|  4.9222e+01|  4.9222e+01|   -8.689212|  4.3946e-05|    0.037000|
|        3460|  4.9222e+01|  4.9222e+01|   -8.699435|  4.3873e-05|    0.036956|
|        3470|  4.9222e+01|  4.9222e+01|   -8.708896|  4.3702e-05|    0.036913|
|        3480|  4.9222e+01|  4.9222e+01|   -8.718128|  4.3502e-05|    0.036871|
|        3490|  4.9222e+01|  4.9222e+01|   -8.727334|  4.3309e-05|    0.036829|
|        3500|  4.9222e+01|  4.9222e+01|   -8.736475|  4.3084e-05|    0.036789|
|        3510|  4.9222e+01|  4.9222e+01|   -8.745288|  4.2769e-05|    0.036750|
|        3520|  4.9222e+01|  4.9222e+01|   -8.753423|  4.2391e-05|    0.036711|
|        3530|  4.9222e+01|  4.9222e+01|   -8.760517|  4.2020e-05|    0.036674|
|        3540|  4.9222e+01|  4.9222e+01|   -8.766438|  4.1684e-05|    0.036637|
|        3550|  4.9222e+01|  4.9222e+01|   -8.771378|  4.1376e-05|    0.036601|
|        3560|  4.9222e+01|  4.9222e+01|   -8.775749|  4.1115e-05|    0.036565|
|        3570|  4.9222e+01|  4.9222e+01|   -8.779773|  4.0923e-05|    0.036528|
|        3580|  4.9222e+01|  4.9222e+01|   -8.783301|  4.0784e-05|    0.036492|
|        3590|  4.9222e+01|  4.9222e+01|   -8.786027|  4.0664e-05|    0.036455|
|        3600|  4.9222e+01|  4.9222e+01|   -8.787905|  4.0543e-05|    0.036418|
+-----------------------------------------------------------------------+
|        File Writing Summary       |              Filename             |
+-----------------------------------------------------------------------+
|SU2 binary restart                 |restart_flow_G6.dat                |
|Paraview                           |flow_G6.vtu                        |
|Paraview surface                   |surface_flow_G6.vtu                |
+-----------------------------------------------------------------------+
+-----------------------------------------------------------------------------+
|  Inner_Iter|     Min CFL|     Max CFL|      rms[P]|  Cauchy[CD]|          CD|
+-----------------------------------------------------------------------------+
|        3610|  4.9222e+01|  4.9222e+01|   -8.789290|  4.0413e-05|    0.036380|
|        3620|  4.9222e+01|  4.9222e+01|   -8.790773|  4.0273e-05|    0.036343|
|        3630|  4.9222e+01|  4.9222e+01|   -8.792860|  4.0120e-05|    0.036306|
|        3640|  4.9222e+01|  4.9222e+01|   -8.795834|  3.9931e-05|    0.036269|
|        3650|  4.9222e+01|  4.9222e+01|   -8.799774|  3.9682e-05|    0.036232|
|        3660|  4.9222e+01|  4.9222e+01|   -8.804597|  3.9371e-05|    0.036196|
|        3670|  4.9222e+01|  4.9222e+01|   -8.810129|  3.9003e-05|    0.036161|
|        3680|  4.9222e+01|  4.9222e+01|   -8.816556|  3.8586e-05|    0.036126|
|        3690|  4.9222e+01|  4.9222e+01|   -8.823564|  3.8131e-05|    0.036092|
|        3700|  4.9222e+01|  4.9222e+01|   -8.830947|  3.7659e-05|    0.036059|
|        3710|  4.9222e+01|  4.9222e+01|   -8.838412|  3.7193e-05|    0.036026|
|        3720|  4.9222e+01|  4.9222e+01|   -8.845548|  3.6746e-05|    0.035994|
|        3730|  4.9222e+01|  4.9222e+01|   -8.852017|  3.6319e-05|    0.035963|
|        3740|  4.9222e+01|  4.9222e+01|   -8.857485|  3.5915e-05|    0.035931|
|        3750|  4.9222e+01|  4.9222e+01|   -8.861787|  3.5543e-05|    0.035900|
|        3760|  4.9222e+01|  4.9222e+01|   -8.864935|  3.5206e-05|    0.035869|
|        3770|  4.9222e+01|  4.9222e+01|   -8.867065|  3.4906e-05|    0.035839|
|        3780|  4.9222e+01|  4.9222e+01|   -8.868358|  3.4639e-05|    0.035808|
|        3790|  4.9222e+01|  4.9222e+01|   -8.869052|  3.4397e-05|    0.035778|
|        3800|  4.9222e+01|  4.9222e+01|   -8.869352|  3.4170e-05|    0.035747|
+-----------------------------------------------------------------------+
|        File Writing Summary       |              Filename             |
+-----------------------------------------------------------------------+
|SU2 binary restart                 |restart_flow_G6.dat                |
|Paraview                           |flow_G6.vtu                        |
|Paraview surface                   |surface_flow_G6.vtu                |
+-----------------------------------------------------------------------+
+-----------------------------------------------------------------------------+
|  Inner_Iter|     Min CFL|     Max CFL|      rms[P]|  Cauchy[CD]|          CD|
+-----------------------------------------------------------------------------+
|        3810|  4.9222e+01|  4.9222e+01|   -8.869416|  3.3946e-05|    0.035716|
|        3820|  4.9222e+01|  4.9222e+01|   -8.869360|  3.3711e-05|    0.035686|
|        3830|  4.9222e+01|  4.9222e+01|   -8.869251|  3.3459e-05|    0.035655|
|        3840|  4.9222e+01|  4.9222e+01|   -8.869183|  3.3189e-05|    0.035625|
|        3850|  4.9222e+01|  4.9222e+01|   -8.869275|  3.2904e-05|    0.035595|
|        3860|  4.9222e+01|  4.9222e+01|   -8.869645|  3.2606e-05|    0.035565|
|        3870|  4.9222e+01|  4.9222e+01|   -8.870350|  3.2296e-05|    0.035536|
|        3880|  4.9222e+01|  4.9222e+01|   -8.871410|  3.1977e-05|    0.035507|
|        3890|  4.9222e+01|  4.9222e+01|   -8.872783|  3.1650e-05|    0.035478|
|        3900|  4.9222e+01|  4.9222e+01|   -8.874438|  3.1322e-05|    0.035449|
|        3910|  4.9222e+01|  4.9222e+01|   -8.876372|  3.0996e-05|    0.035421|
|        3920|  4.9222e+01|  4.9222e+01|   -8.878610|  3.0679e-05|    0.035394|
|        3930|  4.9222e+01|  4.9222e+01|   -8.881219|  3.0379e-05|    0.035367|
|        3940|  4.9222e+01|  4.9222e+01|   -8.884273|  3.0098e-05|    0.035340|
|        3950|  4.9222e+01|  4.9222e+01|   -8.887816|  2.9836e-05|    0.035313|
|        3960|  4.9222e+01|  4.9222e+01|   -8.891866|  2.9591e-05|    0.035286|
|        3970|  4.9222e+01|  4.9222e+01|   -8.896427|  2.9361e-05|    0.035260|
|        3980|  4.9222e+01|  4.9222e+01|   -8.901501|  2.9142e-05|    0.035234|
|        3990|  4.9222e+01|  4.9222e+01|   -8.907101|  2.8933e-05|    0.035208|
|        4000|  4.9222e+01|  4.9222e+01|   -8.913247|  2.8733e-05|    0.035182|
+-----------------------------------------------------------------------+
|        File Writing Summary       |              Filename             |
+-----------------------------------------------------------------------+
|SU2 binary restart                 |restart_flow_G6.dat                |
|Paraview                           |flow_G6.vtu                        |
|Paraview surface                   |surface_flow_G6.vtu                |
+-----------------------------------------------------------------------+
+-----------------------------------------------------------------------------+
|  Inner_Iter|     Min CFL|     Max CFL|      rms[P]|  Cauchy[CD]|          CD|
+-----------------------------------------------------------------------------+
|        4010|  4.9222e+01|  4.9222e+01|   -8.919961|  2.8539e-05|    0.035156|
|        4020|  4.9222e+01|  4.9222e+01|   -8.927259|  2.8348e-05|    0.035130|
|        4030|  4.9222e+01|  4.9222e+01|   -8.935102|  2.8156e-05|    0.035104|
|        4040|  4.9222e+01|  4.9222e+01|   -8.943429|  2.7959e-05|    0.035079|
|        4050|  4.9222e+01|  4.9222e+01|   -8.952167|  2.7755e-05|    0.035053|
|        4060|  4.9222e+01|  4.9222e+01|   -8.961241|  2.7541e-05|    0.035028|
|        4070|  4.9222e+01|  4.9222e+01|   -8.970576|  2.7319e-05|    0.035003|
|        4080|  4.9222e+01|  4.9222e+01|   -8.980097|  2.7090e-05|    0.034978|
|        4090|  5.9067e+00|  5.9067e+00|   -8.989729|  2.6768e-05|    0.034956|
|        4100|  3.6573e+01|  3.6573e+01|   -9.009995|  2.5867e-05|    0.034948|
|        4110|  1.8871e+01|  1.8871e+01|   -9.014354|  2.5063e-05|    0.034939|
|        4120|  4.6956e+01|  4.6956e+01|   -9.006929|  2.4606e-05|    0.034921|
|        4130|  4.6956e+01|  4.6956e+01|   -9.015485|  2.4339e-05|    0.034898|
|        4140|  4.6956e+01|  4.6956e+01|   -9.025149|  2.4065e-05|    0.034876|
|        4150|  4.6956e+01|  4.6956e+01|   -9.032511|  2.3805e-05|    0.034854|
|        4160|  4.6956e+01|  4.6956e+01|   -9.040054|  2.3561e-05|    0.034832|
|        4170|  4.6956e+01|  4.6956e+01|   -9.047775|  2.3329e-05|    0.034811|
|        4180|  4.6956e+01|  4.6956e+01|   -9.054162|  2.3096e-05|    0.034789|
|        4190|  4.6956e+01|  4.6956e+01|   -9.060062|  2.2855e-05|    0.034768|
|        4200|  4.6956e+01|  4.6956e+01|   -9.065228|  2.2618e-05|    0.034748|
+-----------------------------------------------------------------------+
|        File Writing Summary       |              Filename             |
+-----------------------------------------------------------------------+
|SU2 binary restart                 |restart_flow_G6.dat                |
|Paraview                           |flow_G6.vtu                        |
|Paraview surface                   |surface_flow_G6.vtu                |
+-----------------------------------------------------------------------+
+-----------------------------------------------------------------------------+
|  Inner_Iter|     Min CFL|     Max CFL|      rms[P]|  Cauchy[CD]|          CD|
+-----------------------------------------------------------------------------+
|        4210|  4.6956e+01|  4.6956e+01|   -9.069538|  2.2391e-05|    0.034727|
|        4220|  4.6956e+01|  4.6956e+01|   -9.073167|  2.2166e-05|    0.034706|
|        4230|  4.6956e+01|  4.6956e+01|   -9.075874|  2.1937e-05|    0.034686|
|        4240|  4.6956e+01|  4.6956e+01|   -9.077855|  2.1711e-05|    0.034665|
|        4250|  4.6956e+01|  4.6956e+01|   -9.079415|  2.1489e-05|    0.034645|
|        4260|  4.6956e+01|  4.6956e+01|   -9.080585|  2.1265e-05|    0.034624|
|        4270|  4.6956e+01|  4.6956e+01|   -9.081313|  2.1031e-05|    0.034604|
|        4280|  4.6956e+01|  4.6956e+01|   -9.081748|  2.0791e-05|    0.034584|
|        4290|  4.6956e+01|  4.6956e+01|   -9.082193|  2.0549e-05|    0.034565|
|        4300|  4.6956e+01|  4.6956e+01|   -9.082982|  2.0305e-05|    0.034545|
|        4310|  4.6956e+01|  4.6956e+01|   -9.084226|  2.0064e-05|    0.034526|
|        4320|  4.6956e+01|  4.6956e+01|   -9.085867|  1.9825e-05|    0.034507|
|        4330|  4.6956e+01|  4.6956e+01|   -9.087895|  1.9586e-05|    0.034488|
|        4340|  4.6956e+01|  4.6956e+01|   -9.090290|  1.9438e-05|    0.034470|
|        4350|  4.6956e+01|  4.6956e+01|   -9.093020|  1.9867e-05|    0.034452|
|        4360|  4.6956e+01|  4.6956e+01|   -9.096131|  2.0204e-05|    0.034433|
|        4370|  4.6956e+01|  4.6956e+01|   -9.099719|  2.0198e-05|    0.034416|
|        4380|  4.6956e+01|  4.6956e+01|   -9.103834|  2.0008e-05|    0.034398|
|        4390|  4.6956e+01|  4.6956e+01|   -9.108393|  1.9834e-05|    0.034380|
|        4400|  4.6956e+01|  4.6956e+01|   -9.113153|  1.9659e-05|    0.034363|
+-----------------------------------------------------------------------+
|        File Writing Summary       |              Filename             |
+-----------------------------------------------------------------------+
|SU2 binary restart                 |restart_flow_G6.dat                |
|Paraview                           |flow_G6.vtu                        |
|Paraview surface                   |surface_flow_G6.vtu                |
+-----------------------------------------------------------------------+
+-----------------------------------------------------------------------------+
|  Inner_Iter|     Min CFL|     Max CFL|      rms[P]|  Cauchy[CD]|          CD|
+-----------------------------------------------------------------------------+
|        4410|  4.6956e+01|  4.6956e+01|   -9.117877|  1.9480e-05|    0.034345|
|        4420|  4.6956e+01|  4.6956e+01|   -9.122449|  1.9299e-05|    0.034328|
|        4430|  4.6956e+01|  4.6956e+01|   -9.126881|  1.9128e-05|    0.034311|
|        4440|  4.6956e+01|  4.6956e+01|   -9.131241|  1.8974e-05|    0.034294|
|        4450|  4.6956e+01|  4.6956e+01|   -9.135613|  1.8824e-05|    0.034277|
|        4460|  4.6956e+01|  4.6956e+01|   -9.140034|  1.8667e-05|    0.034260|
|        4470|  4.6956e+01|  4.6956e+01|   -9.144504|  1.8510e-05|    0.034243|
|        4480|  4.6956e+01|  4.6956e+01|   -9.148940|  1.8358e-05|    0.034227|
|        4490|  4.6956e+01|  4.6956e+01|   -9.153230|  1.8202e-05|    0.034210|
|        4500|  4.6956e+01|  4.6956e+01|   -9.157270|  1.8038e-05|    0.034194|
|        4510|  4.6956e+01|  4.6956e+01|   -9.161060|  1.7873e-05|    0.034177|
|        4520|  4.6956e+01|  4.6956e+01|   -9.164695|  1.7715e-05|    0.034161|
|        4530|  4.6956e+01|  4.6956e+01|   -9.168271|  1.7560e-05|    0.034145|
|        4540|  4.6956e+01|  4.6956e+01|   -9.171852|  1.7407e-05|    0.034130|
|        4550|  4.6956e+01|  4.6956e+01|   -9.175402|  1.7256e-05|    0.034114|
|        4560|  4.6956e+01|  4.6956e+01|   -9.178827|  1.7106e-05|    0.034099|
|        4570|  4.6956e+01|  4.6956e+01|   -9.182038|  1.6958e-05|    0.034083|
|        4580|  4.6956e+01|  4.6956e+01|   -9.185005|  1.6816e-05|    0.034068|
|        4590|  4.6956e+01|  4.6956e+01|   -9.187751|  1.6681e-05|    0.034053|
|        4600|  4.6956e+01|  4.6956e+01|   -9.190325|  1.6551e-05|    0.034038|
+-----------------------------------------------------------------------+
|        File Writing Summary       |              Filename             |
+-----------------------------------------------------------------------+
|SU2 binary restart                 |restart_flow_G6.dat                |
|Paraview                           |flow_G6.vtu                        |
|Paraview surface                   |surface_flow_G6.vtu                |
+-----------------------------------------------------------------------+
+-----------------------------------------------------------------------------+
|  Inner_Iter|     Min CFL|     Max CFL|      rms[P]|  Cauchy[CD]|          CD|
+-----------------------------------------------------------------------------+
|        4610|  4.6956e+01|  4.6956e+01|   -9.192809|  1.6424e-05|    0.034023|
|        4620|  4.6956e+01|  4.6956e+01|   -9.195258|  1.6302e-05|    0.034008|
|        4630|  4.6956e+01|  4.6956e+01|   -9.197674|  1.6183e-05|    0.033993|
|        4640|  4.6956e+01|  4.6956e+01|   -9.200034|  1.6066e-05|    0.033979|
|        4650|  4.6956e+01|  4.6956e+01|   -9.202306|  1.5949e-05|    0.033964|
|        4660|  4.6956e+01|  4.6956e+01|   -9.204479|  1.5834e-05|    0.033949|
|        4670|  4.6956e+01|  4.6956e+01|   -9.206601|  1.5722e-05|    0.033935|
|        4680|  4.6956e+01|  4.6956e+01|   -9.208732|  1.5611e-05|    0.033921|
|        4690|  9.7369e+00|  9.7369e+00|   -9.211803|  1.5303e-05|    0.033911|
|        4700|  5.0240e+00|  5.0240e+00|   -9.217734|  1.4925e-05|    0.033904|
|        4710|  3.1107e+01|  3.1107e+01|   -9.227760|  1.4413e-05|    0.033900|
|        4720|  4.4794e+01|  4.4794e+01|   -9.216940|  1.4249e-05|    0.033887|
|        4730|  4.4794e+01|  4.4794e+01|   -9.218817|  1.4116e-05|    0.033874|
|        4740|  4.4794e+01|  4.4794e+01|   -9.221594|  1.3981e-05|    0.033861|
|        4750|  4.4794e+01|  4.4794e+01|   -9.223735|  1.3853e-05|    0.033847|
|        4760|  4.4794e+01|  4.4794e+01|   -9.226192|  1.3731e-05|    0.033834|
|        4770|  4.4794e+01|  4.4794e+01|   -9.229121|  1.3615e-05|    0.033821|
|        4780|  4.4794e+01|  4.4794e+01|   -9.231741|  1.3498e-05|    0.033808|
|        4790|  4.4794e+01|  4.4794e+01|   -9.234509|  1.3375e-05|    0.033795|
|        4800|  4.4794e+01|  4.4794e+01|   -9.237428|  1.3253e-05|    0.033783|
+-----------------------------------------------------------------------+
|        File Writing Summary       |              Filename             |
+-----------------------------------------------------------------------+
|SU2 binary restart                 |restart_flow_G6.dat                |
|Paraview                           |flow_G6.vtu                        |
|Paraview surface                   |surface_flow_G6.vtu                |
+-----------------------------------------------------------------------+
+-----------------------------------------------------------------------------+
|  Inner_Iter|     Min CFL|     Max CFL|      rms[P]|  Cauchy[CD]|          CD|
+-----------------------------------------------------------------------------+
|        4810|  4.4794e+01|  4.4794e+01|   -9.240428|  1.3136e-05|    0.033770|
|        4820|  4.4794e+01|  4.4794e+01|   -9.243649|  1.3023e-05|    0.033758|
|        4830|  4.4794e+01|  4.4794e+01|   -9.246930|  1.2909e-05|    0.033745|
|        4840|  4.4794e+01|  4.4794e+01|   -9.250264|  1.2796e-05|    0.033733|
|        4850|  4.4794e+01|  4.4794e+01|   -9.253738|  1.2688e-05|    0.033721|
|        4860|  4.4794e+01|  4.4794e+01|   -9.257283|  1.2584e-05|    0.033708|
|        4870|  4.4794e+01|  4.4794e+01|   -9.260746|  1.2478e-05|    0.033696|
|        4880|  4.4794e+01|  4.4794e+01|   -9.263991|  1.2370e-05|    0.033684|
|        4890|  4.4794e+01|  4.4794e+01|   -9.267062|  1.2262e-05|    0.033672|
|        4900|  4.4794e+01|  4.4794e+01|   -9.270131|  1.2156e-05|    0.033660|
|        4910|  4.4794e+01|  4.4794e+01|   -9.273280|  1.2050e-05|    0.033648|
|        4920|  4.4794e+01|  4.4794e+01|   -9.276431|  1.1947e-05|    0.033636|
|        4930|  4.4794e+01|  4.4794e+01|   -9.279492|  1.1844e-05|    0.033625|
|        4940|  4.4794e+01|  4.4794e+01|   -9.282418|  1.1938e-05|    0.033613|
|        4950|  4.4794e+01|  4.4794e+01|   -9.285145|  1.2100e-05|    0.033601|
|        4960|  4.4794e+01|  4.4794e+01|   -9.287656|  1.2397e-05|    0.033590|
|        4970|  4.4794e+01|  4.4794e+01|   -9.290006|  1.2348e-05|    0.033578|
|        4980|  4.4794e+01|  4.4794e+01|   -9.292360|  1.2269e-05|    0.033567|
|        4990|  4.4794e+01|  4.4794e+01|   -9.294896|  1.2193e-05|    0.033556|
|        5000|  4.4794e+01|  4.4794e+01|   -9.297638|  1.2114e-05|    0.033545|
+-----------------------------------------------------------------------+
|        File Writing Summary       |              Filename             |
+-----------------------------------------------------------------------+
|SU2 binary restart                 |restart_flow_G6.dat                |
|Paraview                           |flow_G6.vtu                        |
|Paraview surface                   |surface_flow_G6.vtu                |
+-----------------------------------------------------------------------+
+-----------------------------------------------------------------------------+
|  Inner_Iter|     Min CFL|     Max CFL|      rms[P]|  Cauchy[CD]|          CD|
+-----------------------------------------------------------------------------+
|        5010|  4.4794e+01|  4.4794e+01|   -9.300495|  1.2031e-05|    0.033533|
|        5020|  4.4794e+01|  4.4794e+01|   -9.303338|  1.1946e-05|    0.033522|
|        5030|  4.4794e+01|  4.4794e+01|   -9.306101|  1.1864e-05|    0.033511|
|        5040|  4.4794e+01|  4.4794e+01|   -9.308800|  1.1790e-05|    0.033501|
|        5050|  4.4794e+01|  4.4794e+01|   -9.311492|  1.1719e-05|    0.033490|
|        5060|  4.4794e+01|  4.4794e+01|   -9.314264|  1.1646e-05|    0.033479|
|        5070|  4.4794e+01|  4.4794e+01|   -9.317189|  1.1573e-05|    0.033468|
|        5080|  4.4794e+01|  4.4794e+01|   -9.320303|  1.1504e-05|    0.033458|
|        5090|  4.4794e+01|  4.4794e+01|   -9.323597|  1.1434e-05|    0.033447|
|        5100|  4.4794e+01|  4.4794e+01|   -9.326990|  1.1362e-05|    0.033437|
|        5110|  4.4794e+01|  4.4794e+01|   -9.330360|  1.1289e-05|    0.033426|
|        5120|  4.4794e+01|  4.4794e+01|   -9.333612|  1.1218e-05|    0.033416|
|        5130|  4.4794e+01|  4.4794e+01|   -9.336727|  1.1149e-05|    0.033405|
|        5140|  4.4794e+01|  4.4794e+01|   -9.339811|  1.1081e-05|    0.033395|
|        5150|  4.4794e+01|  4.4794e+01|   -9.343001|  1.1012e-05|    0.033385|
|        5160|  4.4794e+01|  4.4794e+01|   -9.346358|  1.0943e-05|    0.033375|
|        5170|  4.4794e+01|  4.4794e+01|   -9.349829|  1.0872e-05|    0.033365|
|        5180|  4.4794e+01|  4.4794e+01|   -9.353289|  1.0801e-05|    0.033355|
|        5190|  4.4794e+01|  4.4794e+01|   -9.356666|  1.0731e-05|    0.033345|
|        5200|  4.4794e+01|  4.4794e+01|   -9.359932|  1.0662e-05|    0.033335|
+-----------------------------------------------------------------------+
|        File Writing Summary       |              Filename             |
+-----------------------------------------------------------------------+
|SU2 binary restart                 |restart_flow_G6.dat                |
|Paraview                           |flow_G6.vtu                        |
|Paraview surface                   |surface_flow_G6.vtu                |
+-----------------------------------------------------------------------+
+-----------------------------------------------------------------------------+
|  Inner_Iter|     Min CFL|     Max CFL|      rms[P]|  Cauchy[CD]|          CD|
+-----------------------------------------------------------------------------+
|        5210|  4.4794e+01|  4.4794e+01|   -9.363120|  1.0594e-05|    0.033325|
|        5220|  4.4794e+01|  4.4794e+01|   -9.366279|  1.0526e-05|    0.033315|
|        5230|  4.4794e+01|  4.4794e+01|   -9.369448|  1.0459e-05|    0.033306|
|        5240|  4.4794e+01|  4.4794e+01|   -9.372675|  1.0393e-05|    0.033296|
|        5250|  4.4794e+01|  4.4794e+01|   -9.375929|  1.0327e-05|    0.033286|
|        5260|  4.4794e+01|  4.4794e+01|   -9.379175|  1.0261e-05|    0.033277|
|        5270|  4.4794e+01|  4.4794e+01|   -9.382365|  1.0195e-05|    0.033267|
|        5280|  4.4794e+01|  4.4794e+01|   -9.385465|  1.0131e-05|    0.033258|
|        5290|  4.4794e+01|  4.4794e+01|   -9.388472|  1.0069e-05|    0.033249|
|        5300|  4.4794e+01|  4.4794e+01|   -9.391406|  1.0007e-05|    0.033240|
|        5310|  4.4794e+01|  4.4794e+01|   -9.394313|  9.9447e-06|    0.033230|
|        5320|  4.4794e+01|  4.4794e+01|   -9.397212|  9.8828e-06|    0.033221|
|        5330|  4.4794e+01|  4.4794e+01|   -9.400103|  9.8214e-06|    0.033212|
|        5340|  4.4794e+01|  4.4794e+01|   -9.402976|  9.7602e-06|    0.033203|
|        5350|  4.4794e+01|  4.4794e+01|   -9.405791|  9.6990e-06|    0.033194|
|        5360|  4.4794e+01|  4.4794e+01|   -9.408530|  9.6378e-06|    0.033185|
|        5370|  4.4794e+01|  4.4794e+01|   -9.411194|  9.5768e-06|    0.033176|
|        5380|  4.4794e+01|  4.4794e+01|   -9.413806|  9.5161e-06|    0.033167|
|        5390|  4.4794e+01|  4.4794e+01|   -9.416384|  9.4557e-06|    0.033159|
|        5400|  4.4794e+01|  4.4794e+01|   -9.418946|  9.3953e-06|    0.033150|
+-----------------------------------------------------------------------+
|        File Writing Summary       |              Filename             |
+-----------------------------------------------------------------------+
|SU2 binary restart                 |restart_flow_G6.dat                |
|Paraview                           |flow_G6.vtu                        |
|Paraview surface                   |surface_flow_G6.vtu                |
+-----------------------------------------------------------------------+
+-----------------------------------------------------------------------------+
|  Inner_Iter|     Min CFL|     Max CFL|      rms[P]|  Cauchy[CD]|          CD|
+-----------------------------------------------------------------------------+
|        5410|  4.4794e+01|  4.4794e+01|   -9.421485|  9.3352e-06|    0.033141|
|        5420|  4.4794e+01|  4.4794e+01|   -9.423989|  9.2754e-06|    0.033133|
|        5430|  2.3113e+01|  2.3113e+01|   -9.438461|  8.9817e-06|    0.033130|
|        5440|  1.1926e+01|  1.1926e+01|   -9.440138|  8.7398e-06|    0.033126|
|        5450|  4.2732e+01|  4.2732e+01|   -9.430920|  8.5576e-06|    0.033121|
|        5460|  4.2732e+01|  4.2732e+01|   -9.432016|  8.4860e-06|    0.033113|
|        5470|  4.2732e+01|  4.2732e+01|   -9.434178|  8.4156e-06|    0.033105|
|        5480|  4.2732e+01|  4.2732e+01|   -9.436539|  8.3445e-06|    0.033097|
|        5490|  4.2732e+01|  4.2732e+01|   -9.438588|  8.2768e-06|    0.033089|
|        5500|  4.2732e+01|  4.2732e+01|   -9.440917|  8.2122e-06|    0.033081|
|        5510|  4.2732e+01|  4.2732e+01|   -9.443310|  8.1498e-06|    0.033073|
|        5520|  4.2732e+01|  4.2732e+01|   -9.445514|  8.0862e-06|    0.033065|
|        5530|  4.2732e+01|  4.2732e+01|   -9.447638|  8.0194e-06|    0.033058|
|        5540|  4.2732e+01|  4.2732e+01|   -9.449800|  7.9522e-06|    0.033050|
|        5550|  4.2732e+01|  4.2732e+01|   -9.452062|  7.8869e-06|    0.033042|
|        5560|  4.2732e+01|  4.2732e+01|   -9.454432|  7.8226e-06|    0.033035|
|        5570|  4.2732e+01|  4.2732e+01|   -9.456814|  7.7577e-06|    0.033027|
|        5580|  4.2732e+01|  4.2732e+01|   -9.459235|  7.6930e-06|    0.033020|
|        5590|  4.2732e+01|  4.2732e+01|   -9.461741|  7.6303e-06|    0.033012|
|        5600|  4.2732e+01|  4.2732e+01|   -9.464324|  7.5693e-06|    0.033005|
+-----------------------------------------------------------------------+
|        File Writing Summary       |              Filename             |
+-----------------------------------------------------------------------+
|SU2 binary restart                 |restart_flow_G6.dat                |
|Paraview                           |flow_G6.vtu                        |
|Paraview surface                   |surface_flow_G6.vtu                |
+-----------------------------------------------------------------------+
+-----------------------------------------------------------------------------+
|  Inner_Iter|     Min CFL|     Max CFL|      rms[P]|  Cauchy[CD]|          CD|
+-----------------------------------------------------------------------------+
|        5610|  4.2732e+01|  4.2732e+01|   -9.466915|  7.5082e-06|    0.032997|
|        5620|  4.2732e+01|  4.2732e+01|   -9.469405|  7.4462e-06|    0.032990|
|        5630|  4.2732e+01|  4.2732e+01|   -9.471778|  7.3842e-06|    0.032983|
|        5640|  4.2732e+01|  4.2732e+01|   -9.474184|  7.3227e-06|    0.032976|
|        5650|  4.2732e+01|  4.2732e+01|   -9.476764|  7.2619e-06|    0.032968|
|        5660|  4.2732e+01|  4.2732e+01|   -9.479496|  7.2022e-06|    0.032961|
|        5670|  4.2732e+01|  4.2732e+01|   -9.482290|  7.1438e-06|    0.032954|
|        5680|  4.2732e+01|  4.2732e+01|   -9.485095|  7.3204e-06|    0.032947|
|        5690|  4.2732e+01|  4.2732e+01|   -9.487872|  7.4454e-06|    0.032940|
|        5700|  4.2732e+01|  4.2732e+01|   -9.490571|  7.5113e-06|    0.032933|
|        5710|  4.2732e+01|  4.2732e+01|   -9.493167|  7.4677e-06|    0.032926|
|        5720|  4.2732e+01|  4.2732e+01|   -9.495708|  7.4242e-06|    0.032919|
|        5730|  4.2732e+01|  4.2732e+01|   -9.498318|  7.3824e-06|    0.032912|
[...]
|        7390|  4.2732e+01|  4.2732e+01|   -9.957311|  2.6019e-06|    0.032206|
|        7400|  4.2732e+01|  4.2732e+01|   -9.960049|  2.5855e-06|    0.032204|
+-----------------------------------------------------------------------+
|        File Writing Summary       |              Filename             |
+-----------------------------------------------------------------------+
|SU2 binary restart                 |restart_flow_G6.dat                |
|Paraview                           |flow_G6.vtu                        |
|Paraview surface                   |surface_flow_G6.vtu                |
+-----------------------------------------------------------------------+
+-----------------------------------------------------------------------------+
|  Inner_Iter|     Min CFL|     Max CFL|      rms[P]|  Cauchy[CD]|          CD|
+-----------------------------------------------------------------------------+
|        7410|  4.2732e+01|  4.2732e+01|   -9.962783|  2.5692e-06|    0.032202|
|        7420|  4.2732e+01|  4.2732e+01|   -9.965510|  2.5529e-06|    0.032199|
|        7430|  4.2732e+01|  4.2732e+01|   -9.968234|  2.5368e-06|    0.032197|
|        7440|  4.2732e+01|  4.2732e+01|   -9.970952|  2.5208e-06|    0.032194|
|        7450|  4.2732e+01|  4.2732e+01|   -9.973670|  2.5049e-06|    0.032192|
|        7460|  4.2732e+01|  4.2732e+01|   -9.976388|  2.4890e-06|    0.032190|
|        7470|  4.2732e+01|  4.2732e+01|   -9.979106|  2.4733e-06|    0.032188|
|        7480|  4.2732e+01|  4.2732e+01|   -9.981822|  2.4576e-06|    0.032185|
|        7490|  4.2732e+01|  4.2732e+01|   -9.984540|  2.4421e-06|    0.032183|
|        7500|  4.2732e+01|  4.2732e+01|   -9.987259|  2.4266e-06|    0.032181|
|        7510|  4.2732e+01|  4.2732e+01|   -9.989983|  2.4113e-06|    0.032179|
|        7520|  4.2732e+01|  4.2732e+01|   -9.992709|  2.3960e-06|    0.032176|
|        7530|  4.2732e+01|  4.2732e+01|   -9.995441|  2.3809e-06|    0.032174|
|        7540|  4.2732e+01|  4.2732e+01|   -9.998179|  2.3658e-06|    0.032172|
|        7550|  4.2732e+01|  4.2732e+01|  -10.000919|  2.3508e-06|    0.032170|
|        7560|  4.2732e+01|  4.2732e+01|  -10.003664|  2.3359e-06|    0.032168|
|        7570|  4.2732e+01|  4.2732e+01|  -10.006413|  2.3211e-06|    0.032165|
|        7580|  4.2732e+01|  4.2732e+01|  -10.009167|  2.3064e-06|    0.032163|
|        7590|  4.2732e+01|  4.2732e+01|  -10.011922|  2.2918e-06|    0.032161|
|        7600|  4.2732e+01|  4.2732e+01|  -10.014683|  2.2773e-06|    0.032159|
+-----------------------------------------------------------------------+
|        File Writing Summary       |              Filename             |
+-----------------------------------------------------------------------+
|SU2 binary restart                 |restart_flow_G6.dat                |
|Paraview                           |flow_G6.vtu                        |
|Paraview surface                   |surface_flow_G6.vtu                |
+-----------------------------------------------------------------------+
+-----------------------------------------------------------------------------+
|  Inner_Iter|     Min CFL|     Max CFL|      rms[P]|  Cauchy[CD]|          CD|
+-----------------------------------------------------------------------------+
|        7610|  4.2732e+01|  4.2732e+01|  -10.017448|  2.2629e-06|    0.032157|
|        7620|  4.2732e+01|  4.2732e+01|  -10.020216|  2.2485e-06|    0.032155|
|        7630|  4.2732e+01|  4.2732e+01|  -10.022984|  2.2343e-06|    0.032153|
|        7640|  4.2732e+01|  4.2732e+01|  -10.025753|  2.2201e-06|    0.032151|
|        7650|  4.2732e+01|  4.2732e+01|  -10.028522|  2.2061e-06|    0.032149|
|        7660|  4.2732e+01|  4.2732e+01|  -10.031290|  2.1921e-06|    0.032147|
|        7670|  4.2732e+01|  4.2732e+01|  -10.034057|  2.1782e-06|    0.032145|
|        7680|  4.2732e+01|  4.2732e+01|  -10.036821|  2.1644e-06|    0.032143|
|        7690|  4.2732e+01|  4.2732e+01|  -10.039584|  2.1507e-06|    0.032141|
|        7700|  4.2732e+01|  4.2732e+01|  -10.042338|  2.1370e-06|    0.032139|
|        7710|  4.2732e+01|  4.2732e+01|  -10.045092|  2.1235e-06|    0.032137|
|        7720|  4.2732e+01|  4.2732e+01|  -10.047841|  2.1100e-06|    0.032135|
|        7730|  4.2732e+01|  4.2732e+01|  -10.050585|  2.0966e-06|    0.032133|
|        7740|  4.2732e+01|  4.2732e+01|  -10.053325|  2.0834e-06|    0.032131|
|        7750|  4.2732e+01|  4.2732e+01|  -10.056061|  2.0702e-06|    0.032129|
|        7760|  4.2732e+01|  4.2732e+01|  -10.058795|  2.0570e-06|    0.032127|
|        7770|  4.2732e+01|  4.2732e+01|  -10.061523|  2.0440e-06|    0.032125|
|        7780|  4.2732e+01|  4.2732e+01|  -10.064248|  2.0311e-06|    0.032123|
|        7790|  4.2732e+01|  4.2732e+01|  -10.066964|  2.0182e-06|    0.032121|
|        7800|  4.2732e+01|  4.2732e+01|  -10.069682|  2.0054e-06|    0.032120|
+-----------------------------------------------------------------------+
|        File Writing Summary       |              Filename             |
+-----------------------------------------------------------------------+
|SU2 binary restart                 |restart_flow_G6.dat                |
|Paraview                           |flow_G6.vtu                        |
|Paraview surface                   |surface_flow_G6.vtu                |
+-----------------------------------------------------------------------+
+-----------------------------------------------------------------------------+
|  Inner_Iter|     Min CFL|     Max CFL|      rms[P]|  Cauchy[CD]|          CD|
+-----------------------------------------------------------------------------+
|        7810|  4.2732e+01|  4.2732e+01|  -10.072399|  1.9927e-06|    0.032118|
|        7820|  4.2732e+01|  4.2732e+01|  -10.075112|  1.9801e-06|    0.032116|
|        7830|  4.2732e+01|  4.2732e+01|  -10.077826|  1.9675e-06|    0.032114|
|        7840|  4.2732e+01|  4.2732e+01|  -10.080539|  1.9551e-06|    0.032112|
|        7850|  4.2732e+01|  4.2732e+01|  -10.083254|  1.9427e-06|    0.032111|
|        7860|  4.2732e+01|  4.2732e+01|  -10.085971|  1.9304e-06|    0.032109|
|        7870|  4.2732e+01|  4.2732e+01|  -10.088692|  1.9182e-06|    0.032107|
|        7880|  4.2732e+01|  4.2732e+01|  -10.091416|  1.9060e-06|    0.032105|
|        7890|  4.2732e+01|  4.2732e+01|  -10.094143|  1.8939e-06|    0.032103|
|        7900|  4.2732e+01|  4.2732e+01|  -10.096873|  1.8819e-06|    0.032102|
|        7910|  4.2732e+01|  4.2732e+01|  -10.099608|  1.8700e-06|    0.032100|
|        7920|  4.2732e+01|  4.2732e+01|  -10.102349|  1.8582e-06|    0.032098|
|        7930|  4.2732e+01|  4.2732e+01|  -10.105095|  1.8464e-06|    0.032097|
|        7940|  4.2732e+01|  4.2732e+01|  -10.107845|  1.8347e-06|    0.032095|
|        7950|  4.2732e+01|  4.2732e+01|  -10.110604|  1.8231e-06|    0.032093|
|        7960|  4.2732e+01|  4.2732e+01|  -10.113366|  1.8115e-06|    0.032091|
|        7970|  4.2732e+01|  4.2732e+01|  -10.116133|  1.8001e-06|    0.032090|
|        7980|  4.2732e+01|  4.2732e+01|  -10.118902|  1.7887e-06|    0.032088|
|        7990|  4.2732e+01|  4.2732e+01|  -10.121677|  1.7773e-06|    0.032087|
|        8000|  4.2732e+01|  4.2732e+01|  -10.124453|  1.7661e-06|    0.032085|
+-----------------------------------------------------------------------+
|        File Writing Summary       |              Filename             |
+-----------------------------------------------------------------------+
|SU2 binary restart                 |restart_flow_G6.dat                |
|Paraview                           |flow_G6.vtu                        |
|Paraview surface                   |surface_flow_G6.vtu                |
+-----------------------------------------------------------------------+
+-----------------------------------------------------------------------------+
|  Inner_Iter|     Min CFL|     Max CFL|      rms[P]|  Cauchy[CD]|          CD|
+-----------------------------------------------------------------------------+
|        8010|  4.2732e+01|  4.2732e+01|  -10.127231|  1.7549e-06|    0.032083|
|        8020|  4.2732e+01|  4.2732e+01|  -10.130010|  1.7438e-06|    0.032082|
|        8030|  4.2732e+01|  4.2732e+01|  -10.132790|  1.7328e-06|    0.032080|
|        8040|  4.2732e+01|  4.2732e+01|  -10.135567|  1.7218e-06|    0.032078|
|        8050|  4.2732e+01|  4.2732e+01|  -10.138344|  1.7109e-06|    0.032077|
|        8060|  4.2732e+01|  4.2732e+01|  -10.141119|  1.7001e-06|    0.032075|
|        8070|  4.2732e+01|  4.2732e+01|  -10.143892|  1.6893e-06|    0.032074|
|        8080|  4.2732e+01|  4.2732e+01|  -10.146663|  1.6786e-06|    0.032072|
|        8090|  4.2732e+01|  4.2732e+01|  -10.149429|  1.6680e-06|    0.032071|
|        8100|  4.2732e+01|  4.2732e+01|  -10.152193|  1.6575e-06|    0.032069|
|        8110|  4.2732e+01|  4.2732e+01|  -10.154954|  1.6470e-06|    0.032068|
|        8120|  4.2732e+01|  4.2732e+01|  -10.157713|  1.6366e-06|    0.032066|
|        8130|  4.2732e+01|  4.2732e+01|  -10.160468|  1.6262e-06|    0.032065|
|        8140|  4.2732e+01|  4.2732e+01|  -10.163217|  1.6159e-06|    0.032063|
|        8150|  4.2732e+01|  4.2732e+01|  -10.165963|  1.6057e-06|    0.032062|
|        8160|  4.2732e+01|  4.2732e+01|  -10.168707|  1.5955e-06|    0.032060|
|        8170|  4.2732e+01|  4.2732e+01|  -10.171449|  1.5854e-06|    0.032059|
|        8180|  4.2732e+01|  4.2732e+01|  -10.174190|  1.5754e-06|    0.032057|
|        8190|  4.2732e+01|  4.2732e+01|  -10.176932|  1.5654e-06|    0.032056|
|        8200|  4.2732e+01|  4.2732e+01|  -10.179671|  1.5555e-06|    0.032054|
+-----------------------------------------------------------------------+
|        File Writing Summary       |              Filename             |
+-----------------------------------------------------------------------+
|SU2 binary restart                 |restart_flow_G6.dat                |
|Paraview                           |flow_G6.vtu                        |
|Paraview surface                   |surface_flow_G6.vtu                |
+-----------------------------------------------------------------------+
+-----------------------------------------------------------------------------+
|  Inner_Iter|     Min CFL|     Max CFL|      rms[P]|  Cauchy[CD]|          CD|
+-----------------------------------------------------------------------------+
|        8210|  4.2732e+01|  4.2732e+01|  -10.182410|  1.5457e-06|    0.032053|
|        8220|  4.2732e+01|  4.2732e+01|  -10.185149|  1.5359e-06|    0.032051|
|        8230|  4.2732e+01|  4.2732e+01|  -10.187888|  1.5262e-06|    0.032050|
|        8240|  4.2732e+01|  4.2732e+01|  -10.190628|  1.5165e-06|    0.032049|
|        8250|  4.2732e+01|  4.2732e+01|  -10.193367|  1.5069e-06|    0.032047|
|        8260|  4.2732e+01|  4.2732e+01|  -10.196104|  1.4974e-06|    0.032046|
|        8270|  4.2732e+01|  4.2732e+01|  -10.198846|  1.4879e-06|    0.032044|
|        8280|  4.2732e+01|  4.2732e+01|  -10.201589|  1.4785e-06|    0.032043|
|        8290|  4.2732e+01|  4.2732e+01|  -10.204335|  1.4691e-06|    0.032042|
|        8300|  4.2732e+01|  4.2732e+01|  -10.207084|  1.4598e-06|    0.032040|
|        8310|  4.2732e+01|  4.2732e+01|  -10.209834|  1.4505e-06|    0.032039|
|        8320|  4.2732e+01|  4.2732e+01|  -10.212587|  1.4413e-06|    0.032038|
|        8330|  4.2732e+01|  4.2732e+01|  -10.215342|  1.4322e-06|    0.032036|
|        8340|  4.2732e+01|  4.2732e+01|  -10.218098|  1.4231e-06|    0.032035|
|        8350|  4.2732e+01|  4.2732e+01|  -10.220857|  1.4141e-06|    0.032034|
|        8360|  4.2732e+01|  4.2732e+01|  -10.223617|  1.4051e-06|    0.032032|
|        8370|  4.2732e+01|  4.2732e+01|  -10.226379|  1.3962e-06|    0.032031|
|        8380|  4.2732e+01|  4.2732e+01|  -10.229142|  1.3874e-06|    0.032030|
|        8390|  4.2732e+01|  4.2732e+01|  -10.231906|  1.3786e-06|    0.032029|
|        8400|  4.2732e+01|  4.2732e+01|  -10.234672|  1.3698e-06|    0.032027|
+-----------------------------------------------------------------------+
|        File Writing Summary       |              Filename             |
+-----------------------------------------------------------------------+
|SU2 binary restart                 |restart_flow_G6.dat                |
|Paraview                           |flow_G6.vtu                        |
|Paraview surface                   |surface_flow_G6.vtu                |
+-----------------------------------------------------------------------+
+-----------------------------------------------------------------------------+
|  Inner_Iter|     Min CFL|     Max CFL|      rms[P]|  Cauchy[CD]|          CD|
+-----------------------------------------------------------------------------+
|        8410|  4.2732e+01|  4.2732e+01|  -10.237437|  1.3611e-06|    0.032026|
|        8420|  4.2732e+01|  4.2732e+01|  -10.240201|  1.3525e-06|    0.032025|
|        8430|  4.2732e+01|  4.2732e+01|  -10.242965|  1.3439e-06|    0.032024|
|        8440|  4.2732e+01|  4.2732e+01|  -10.245727|  1.3354e-06|    0.032022|
|        8450|  4.2732e+01|  4.2732e+01|  -10.248490|  1.3269e-06|    0.032021|
|        8460|  4.2732e+01|  4.2732e+01|  -10.251253|  1.3185e-06|    0.032020|
|        8470|  4.2732e+01|  4.2732e+01|  -10.254016|  1.3101e-06|    0.032019|
|        8480|  4.2732e+01|  4.2732e+01|  -10.256776|  1.3018e-06|    0.032017|
|        8490|  4.2732e+01|  4.2732e+01|  -10.259537|  1.2935e-06|    0.032016|
|        8500|  4.2732e+01|  4.2732e+01|  -10.262294|  1.2853e-06|    0.032015|
|        8510|  4.2732e+01|  4.2732e+01|  -10.265050|  1.2771e-06|    0.032014|
|        8520|  4.2732e+01|  4.2732e+01|  -10.267805|  1.2690e-06|    0.032013|
|        8530|  4.2732e+01|  4.2732e+01|  -10.270561|  1.2610e-06|    0.032012|
|        8540|  4.2732e+01|  4.2732e+01|  -10.273315|  1.2530e-06|    0.032010|
|        8550|  4.2732e+01|  4.2732e+01|  -10.276069|  1.2450e-06|    0.032009|
|        8560|  4.2732e+01|  4.2732e+01|  -10.278822|  1.2371e-06|    0.032008|
|        8570|  4.2732e+01|  4.2732e+01|  -10.281576|  1.2293e-06|    0.032007|
|        8580|  4.2732e+01|  4.2732e+01|  -10.284331|  1.2215e-06|    0.032006|
|        8590|  4.2732e+01|  4.2732e+01|  -10.287085|  1.2137e-06|    0.032005|
|        8600|  4.2732e+01|  4.2732e+01|  -10.289840|  1.2060e-06|    0.032004|
+-----------------------------------------------------------------------+
|        File Writing Summary       |              Filename             |
+-----------------------------------------------------------------------+
|SU2 binary restart                 |restart_flow_G6.dat                |
|Paraview                           |flow_G6.vtu                        |
|Paraview surface                   |surface_flow_G6.vtu                |
+-----------------------------------------------------------------------+
+-----------------------------------------------------------------------------+
|  Inner_Iter|     Min CFL|     Max CFL|      rms[P]|  Cauchy[CD]|          CD|
+-----------------------------------------------------------------------------+
|        8610|  4.2732e+01|  4.2732e+01|  -10.292596|  1.1983e-06|    0.032002|
|        8620|  4.2732e+01|  4.2732e+01|  -10.295356|  1.1907e-06|    0.032001|
|        8630|  4.2732e+01|  4.2732e+01|  -10.298116|  1.1832e-06|    0.032000|
|        8640|  4.2732e+01|  4.2732e+01|  -10.300870|  1.1757e-06|    0.031999|
|        8650|  4.2732e+01|  4.2732e+01|  -10.303632|  1.1682e-06|    0.031998|
|        8660|  4.2732e+01|  4.2732e+01|  -10.306397|  1.1608e-06|    0.031997|
|        8670|  4.2732e+01|  4.2732e+01|  -10.309164|  1.1534e-06|    0.031996|
|        8680|  4.2732e+01|  4.2732e+01|  -10.311933|  1.1461e-06|    0.031995|
|        8690|  4.2732e+01|  4.2732e+01|  -10.314704|  1.1388e-06|    0.031994|
|        8700|  4.2732e+01|  4.2732e+01|  -10.317477|  1.1316e-06|    0.031993|
|        8710|  4.2732e+01|  4.2732e+01|  -10.320251|  1.1244e-06|    0.031992|
|        8720|  4.2732e+01|  4.2732e+01|  -10.323027|  1.1173e-06|    0.031991|
|        8730|  4.2732e+01|  4.2732e+01|  -10.325806|  1.1102e-06|    0.031990|
|        8740|  4.2732e+01|  4.2732e+01|  -10.328585|  1.1032e-06|    0.031989|
|        8750|  4.2732e+01|  4.2732e+01|  -10.331366|  1.0962e-06|    0.031988|
|        8760|  4.2732e+01|  4.2732e+01|  -10.334147|  1.0892e-06|    0.031987|
|        8770|  4.2732e+01|  4.2732e+01|  -10.336928|  1.0823e-06|    0.031986|
|        8780|  4.2732e+01|  4.2732e+01|  -10.339709|  1.0755e-06|    0.031985|
|        8790|  4.2732e+01|  4.2732e+01|  -10.342489|  1.0686e-06|    0.031984|
|        8800|  4.2732e+01|  4.2732e+01|  -10.345269|  1.0619e-06|    0.031983|
+-----------------------------------------------------------------------+
|        File Writing Summary       |              Filename             |
+-----------------------------------------------------------------------+
|SU2 binary restart                 |restart_flow_G6.dat                |
|Paraview                           |flow_G6.vtu                        |
|Paraview surface                   |surface_flow_G6.vtu                |
+-----------------------------------------------------------------------+
+-----------------------------------------------------------------------------+
|  Inner_Iter|     Min CFL|     Max CFL|      rms[P]|  Cauchy[CD]|          CD|
+-----------------------------------------------------------------------------+
|        8810|  4.2732e+01|  4.2732e+01|  -10.348048|  1.0551e-06|    0.031982|
|        8820|  4.2732e+01|  4.2732e+01|  -10.350826|  1.0484e-06|    0.031981|
|        8830|  4.2732e+01|  4.2732e+01|  -10.353602|  1.0418e-06|    0.031980|
|        8840|  4.2732e+01|  4.2732e+01|  -10.356378|  1.0352e-06|    0.031979|
|        8850|  4.2732e+01|  4.2732e+01|  -10.359152|  1.0286e-06|    0.031978|
|        8860|  4.2732e+01|  4.2732e+01|  -10.361925|  1.0221e-06|    0.031977|
|        8870|  4.2732e+01|  4.2732e+01|  -10.364696|  1.0156e-06|    0.031976|
|        8880|  4.2732e+01|  4.2732e+01|  -10.367466|  1.0091e-06|    0.031975|
|        8890|  4.2732e+01|  4.2732e+01|  -10.370234|  1.0027e-06|    0.031974|
|        8895|  4.2732e+01|  4.2732e+01|  -10.371618|  9.9953e-07|    0.031974|

----------------------------- Solver Exit -------------------------------
All convergence criteria satisfied.
+-----------------------------------------------------------------------+
|      Convergence Field     |     Value    |   Criterion  |  Converged |
+-----------------------------------------------------------------------+
|                      rms[P]|      -10.3716|          < -9|         Yes|
|                  Cauchy[CD]|   9.99532e-07|       < 1e-06|         Yes|
+-----------------------------------------------------------------------+
-------------------------------------------------------------------------
+-----------------------------------------------------------------------+
|        File Writing Summary       |              Filename             |
+-----------------------------------------------------------------------+
|SU2 binary restart                 |restart_flow_G6.dat                |
|Paraview                           |flow_G6.vtu                        |
|Paraview surface                   |surface_flow_G6.vtu                |
+-----------------------------------------------------------------------+

------------------------- Solver Postprocessing -------------------------
Deleted CNumerics container.
Deleted CIntegration container.
Deleted CSolver container.
Deleted CIteration container.
Deleted CInterface container.
Deleted CGeometry container.
Deleted CFreeFormDefBox class.
Deleted CSurfaceMovement class.
Deleted CVolumetricMovement class.
Deleted CConfig container.
Deleted nInst container.
Deleted COutput class.
-------------------------------------------------------------------------

------------------------- Exit Success (SU2_CFD) ------------------------

