
-------------------------------------------------------------------------
|    ___ _   _ ___                                                      |
|   / __| | | |_  )   Release 7.4.0 "Blackbird"                         |
|   \__ \ |_| |/ /                                                      |
|   |___/\___//___|   Suite (Computational Fluid Dynamics Code)         |
|                                                                       |
-------------------------------------------------------------------------
| SU2 Project Website: https://su2code.github.io                        |
|                                                                       |
| The SU2 Project is maintained by the SU2 Foundation                   |
| (http://su2foundation.org)                                            |
-------------------------------------------------------------------------
| Copyright 2012-2022, SU2 Contributors                                 |
|                                                                       |
| SU2 is free software; you can redistribute it and/or                  |
| modify it under the terms of the GNU Lesser General Public            |
| License as published by the Free Software Foundation; either          |
| version 2.1 of the License, or (at your option) any later version.    |
|                                                                       |
| SU2 is distributed in the hope that it will be useful,                |
| but WITHOUT ANY WARRANTY; without even the implied warranty of        |
| MERCHANTABILITY or FITNESS FOR A PARTICULAR PURPOSE. See the GNU      |
| Lesser General Public License for more details.                       |
|                                                                       |
| You should have received a copy of the GNU Lesser General Public      |
| License along with SU2. If not, see <http://www.gnu.org/licenses/>.   |
-------------------------------------------------------------------------

Parsing config file for zone 0

----------------- Physical Case Definition ( Zone 0 ) -------------------
Incompressible RANS equations.
Turbulence model: Spalart-Allmaras-noft2
Hybrid RANS/LES: No Hybrid RANS/LES
No restart solution, use the values at infinity (freestream).
Non-Dimensional simulation using intialization values.
The reference area is 1 m^2.
The semi-span will be computed using the max y(3D) value.
The reference length is 1.00898 m.
Reference origin for moment evaluation is (-0.756, 0, 0).
Surface(s) where the force coefficients are evaluated: AIRFOIL.

Surface(s) plotted in the output file: AIRFOIL.
Input mesh file name: ../meshG7/meshG7.su2

--------------- Space Numerical Integration ( Zone 0 ) ------------------
Flux difference splitting (FDS) upwind scheme for the flow inviscid terms.
First order integration in space.
Average of gradients with correction (viscous flow terms).
Average of gradients with correction (viscous turbulence terms).
Gradient for upwind reconstruction: unweighted Least-Squares.
Gradient for viscous and source terms: Green-Gauss.

--------------- Time Numerical Integration  ( Zone 0 ) ------------------
Local time stepping (steady state simulation).
Euler implicit method for the flow equations.
FGMRES is used for solving the linear system.
Using a ILU(0) preconditioning.
Convergence criteria of the linear solver: 1e-06.
Max number of linear iterations: 10.
CFL adaptation. Factor down: 0.1, factor up: 1.2,
                lower limit: 1, upper limit: 1000,
                acceptable linear residual: 0.001.
Courant-Friedrichs-Lewy number:        2
Euler implicit time integration for the turbulence model.

------------------ Convergence Criteria  ( Zone 0 ) ---------------------
Maximum number of solver subiterations: 9999.
Begin convergence monitoring at iteration 10.
Residual minimum value: 1e-9.
Cauchy series min. value: 1e-06.
Number of Cauchy elements: 250.
Begin windowed time average at iteration 0.

-------------------- Output Information ( Zone 0 ) ----------------------
File writing frequency: 
+------------------------------------+
|                     File| Frequency|
+------------------------------------+
|                  RESTART|       200|
|                 PARAVIEW|       200|
|         SURFACE_PARAVIEW|       200|
+------------------------------------+
Writing the convergence history file every 1 inner iterations.
Writing the screen convergence history every 10 inner iterations.
The tabular file format is CSV (.csv).
Convergence history file name: history_G7.
Forces breakdown file name: forces_breakdown.dat.
Surface file name: surface_flow_G7.
Volume file name: flow_G7.
Restart file name: restart_flow_G7.dat.

------------- Config File Boundary Information ( Zone 0 ) ---------------
+-----------------------------------------------------------------------+
|                        Marker Type|                        Marker Name|
+-----------------------------------------------------------------------+
|                          Far-field|                           FARFIELD|
+-----------------------------------------------------------------------+
|                     Heat flux wall|                            AIRFOIL|
+-----------------------------------------------------------------------+

-------------------- Output Preprocessing ( Zone 0 ) --------------------

WARNING: SURFACE_PRESSURE_DROP can only be computed for at least 2 surfaces (outlet, inlet, ...)

Screen output fields: INNER_ITER, MIN_CFL, MAX_CFL, RMS_PRESSURE, CAUCHY_DRAG, DRAG
History output group(s): INNER_ITER, MIN_CFL, MAX_CFL, RMS_RES, LIFT, DRAG, MOMENT_Z, CAUCHY
Convergence field(s): RMS_PRESSURE, DRAG
Warning: No (valid) fields chosen for time convergence monitoring. Time convergence monitoring inactive.
Volume output fields: COORDINATES, SOLUTION, PRIMITIVE, RESIDUAL, MESH_QUALITY

------------------- Geometry Preprocessing ( Zone 0 ) -------------------
Two dimensional problem.
394110 grid points before partitioning.
392644 volume elements before partitioning.
2 surface markers.
898 boundary elements in index 0 (Marker = AIRFOIL).
2034 boundary elements in index 1 (Marker = FARFIELD).
Executing the partitioning functions.
Building the graph adjacency structure.
Calling ParMETIS... graph partitioning complete (2255 edge cuts).
Distributing ParMETIS coloring.
Rebalancing vertices.
Rebalancing volume element connectivity.
Rebalancing markers and surface elements.
398624 vertices including ghost points. 
394895 interior elements including halo cells. 
394895 quadrilaterals.
Establishing MPI communication patterns.
Setting point connectivity.
Renumbering points (Reverse Cuthill McKee Ordering).
Recomputing point connectivity.
Setting element connectivity.
Checking the numerical grid orientation.
All volume elements are correctly orientend.
There has been a re-orientation of 1472 LINE surface elements.
Identifying edges and vertices.
Setting the control volume structure.
Area of the computational grid: 3230.39.
Searching for the closest normal neighbors to the surfaces.
Storing a mapping from global to local point index.
Compute the surface curvature.
Max K: 7881.07. Mean K: 4.02808. Standard deviation K: 145.804.
Checking for periodicity.
Computing mesh quality statistics for the dual control volumes.
+--------------------------------------------------------------+
|           Mesh Quality Metric|        Minimum|        Maximum|
+--------------------------------------------------------------+
|    Orthogonality Angle (deg.)|        74.6076|             90|
|     CV Face Area Aspect Ratio|        1.00003|        52017.2|
|           CV Sub-Volume Ratio|              1|        13.7078|
+--------------------------------------------------------------+
Finding max control volume width.
Communicating number of neighbors.
Wetted area = 2.05979 m.
Area projection in the x-plane = 0.121117 m, y-plane = 1.00885 m.
Max. coordinate in the x-direction = 1.00898 m, y-direction = 0.0759837 m.
Min. coordinate in the x-direction = 3.82704e-07 m, y-direction = -0.0451341 m.
Computing wall distances.

-------------------- Solver Preprocessing ( Zone 0 ) --------------------
Incompressible flow: rho_ref, vel_ref, and temp_ref
are based on the initial values, p_ref = rho_ref*vel_ref^2.
Force coefficients computed using initial values.
The reference area for force coeffs. is 1 m^2.
The reference length for force coeffs. is 1.00898 m.
The pressure is decomposed into thermodynamic and dynamic components.
The initial value of the dynamic pressure is 0.
Mach number: 0.0276748, computed using the Bulk modulus.
For external flows, the initial state is imposed at the far-field.
Angle of attack (deg): 17.9997, computed using the initial velocity.
Side slip angle (deg): 0, computed using the initial velocity.
Reynolds number per meter: 595002, computed using initial values.
Reynolds number is a byproduct of inputs only (not used internally).
SI units only. The grid should be dimensional (meters).
No energy equation.

-- Models:
+------------------------------------------------------------------------------+
|          Viscosity Model|        Conductivity Model|              Fluid Model|
+------------------------------------------------------------------------------+
|       CONSTANT_VISCOSITY|          CONSTANT_PRANDTL|         CONSTANT_DENSITY|
+------------------------------------------------------------------------------+
-- Fluid properties:
+------------------------------------------------------------------------------+
|                  Name|    Dim. value|    Ref. value|      Unit|Non-dim. value|
+------------------------------------------------------------------------------+
|             Viscosity|      1.92e-05|        11.424|   N.s/m^2|   1.68067e-06|
+------------------------------------------------------------------------------+
|        Prandtl (Lam.)|             -|             -|         -|          0.72|
|       Prandtl (Turb.)|             -|             -|         -|           0.9|
+------------------------------------------------------------------------------+
|          Bulk Modulus|        142000|             1|        Pa|        142000|
+------------------------------------------------------------------------------+
-- Initial and free-stream conditions:
+------------------------------------------------------------------------------+
|                  Name|    Dim. value|    Ref. value|      Unit|Non-dim. value|
+------------------------------------------------------------------------------+
|      Dynamic Pressure|             0|       108.757|        Pa|             0|
|        Total Pressure|       54.3785|       108.757|        Pa|           0.5|
|               Density|           1.2|           1.2|    kg/m^3|             1|
|            Velocity-X|        9.0541|       9.52003|       m/s|      0.951058|
|            Velocity-Y|        2.9418|       9.52003|       m/s|      0.309012|
|    Velocity Magnitude|       9.52003|       9.52003|       m/s|             1|
+------------------------------------------------------------------------------+
|             Viscosity|      1.92e-05|        11.424|   N.s/m^2|   1.68067e-06|
|          Conductivity|             -|       3.59317|   W/m^2.K|             -|
|     Turb. Kin. Energy|       1.35946|       90.6309|   m^2/s^2|         0.015|
|     Spec. Dissipation|       8496.65|       9.52003|       1/s|       892.503|
+------------------------------------------------------------------------------+
|           Mach Number|             -|             -|         -|     0.0276748|
|       Reynolds Number|             -|             -|         -|        595002|
+------------------------------------------------------------------------------+
Initialize Jacobian structure (Navier-Stokes). MG level: 0.
Initialize Jacobian structure (SA model).

------------------- Numerics Preprocessing ( Zone 0 ) -------------------

----------------- Integration Preprocessing ( Zone 0 ) ------------------

------------------- Iteration Preprocessing ( Zone 0 ) ------------------
Euler/Navier-Stokes/RANS fluid iteration.

------------------------------ Begin Solver -----------------------------

Simulation Run using the Single-zone Driver
+-----------------------------------------------------------------------------+
|  Inner_Iter|     Min CFL|     Max CFL|      rms[P]|  Cauchy[CD]|          CD|
+-----------------------------------------------------------------------------+
|           0|  2.4000e+00|  2.4000e+00|   -4.368628|  1.0000e+00|    0.829886|
|          10|  1.4860e+01|  1.4860e+01|   -5.100540|  1.4379e-03|    1.209206|
|          20|  7.6675e+00|  7.6675e+00|   -5.309779|  1.5657e-03|    1.241178|
|          30|  3.9563e+01|  3.9563e+01|   -5.234531|  1.7766e-03|    1.177707|
|          40|  2.0413e+01|  2.0413e+01|   -5.190152|  2.1274e-03|    1.079471|
|          50|  1.0533e+01|  1.0533e+01|   -5.169587|  2.9031e-03|    0.891629|
|          60|  4.5290e+01|  4.5290e+01|   -5.155682|  4.0501e-03|    0.672815|
|          70|  1.1270e+01|  1.1270e+01|   -5.230401|  6.0650e-03|    0.413448|
|          80|  4.8457e+01|  4.8457e+01|   -5.267728|  8.5226e-03|    0.228764|
|          90|  2.5003e+01|  2.5003e+01|   -5.274927|  9.9175e-03|    0.162961|
|         100|  1.2901e+01|  1.2901e+01|   -5.277668|  1.1882e-02|    0.101463|
|         110|  6.6565e+00|  6.6565e+00|   -5.291236|  1.3521e-02|    0.060491|
|         120|  4.1216e+01|  4.1216e+01|   -5.294902|  1.4432e-02|    0.037721|
|         130|  2.1266e+01|  2.1266e+01|   -5.299825|  1.5939e-02|    0.000049|
|         140|  1.0973e+01|  1.0973e+01|   -5.299343|  1.8031e-02|   -0.052247|
|         150|  5.6618e+01|  5.6618e+01|   -5.311361|  1.8837e-02|   -0.068738|
|         160|  2.9214e+01|  2.9214e+01|   -5.329414|  1.9708e-02|   -0.046975|
|         170|  1.5074e+01|  1.5074e+01|   -5.335419|  2.3297e-02|    0.042759|
|         180|  5.4011e+01|  5.4011e+01|   -5.352544|  2.8777e-02|    0.239472|
|         190|  5.4011e+01|  5.4011e+01|   -5.368407|  3.1338e-02|    0.466432|
|         200|  6.4814e+01|  6.4814e+01|   -5.377441|  3.2239e-02|    0.389489|
+-----------------------------------------------------------------------+
|        File Writing Summary       |              Filename             |
+-----------------------------------------------------------------------+
|SU2 binary restart                 |restart_flow_G7.dat                |
|Paraview                           |flow_G7.vtu                        |
|Paraview surface                   |surface_flow_G7.vtu                |
+-----------------------------------------------------------------------+
+-----------------------------------------------------------------------------+
|  Inner_Iter|     Min CFL|     Max CFL|      rms[P]|  Cauchy[CD]|          CD|
+-----------------------------------------------------------------------------+
|         210|  3.3442e+01|  3.3442e+01|   -5.389628|  3.3187e-02|    0.308601|
|         220|  5.7789e+01|  5.7789e+01|   -5.458239|  3.6502e-02|    0.139361|
|         230|  5.7789e+01|  5.7789e+01|   -5.484687|  3.7797e-02|    0.149574|
|         240|  5.7789e+01|  5.7789e+01|   -5.465125|  3.9170e-02|    0.212199|
|         250|  2.9818e+01|  2.9818e+01|   -5.483221|  3.9340e-02|    0.221428|
|         260|  1.5385e+01|  1.5385e+01|   -5.528330|  3.7956e-02|    0.224472|
|         270|  7.9384e+00|  7.9384e+00|   -5.589126|  3.7964e-02|    0.232252|
|         280|  4.9153e+01|  4.9153e+01|   -5.601130|  3.7929e-02|    0.242697|
|         290|  5.8983e+01|  5.8983e+01|   -5.581831|  3.7979e-02|    0.268423|
|         300|  5.8983e+01|  5.8983e+01|   -5.625088|  3.7681e-02|    0.238399|
|         310|  7.0780e+00|  7.0780e+00|   -5.779093|  3.7453e-02|    0.189984|
|         320|  4.3825e+01|  4.3825e+01|   -5.814072|  3.5587e-02|    0.183052|
|         330|  2.2613e+01|  2.2613e+01|   -5.814174|  3.3177e-02|    0.182945|
|         340|  1.1668e+01|  1.1668e+01|   -5.797079|  3.2050e-02|    0.195667|
|         350|  7.2243e+01|  7.2243e+01|   -5.806920|  3.0466e-02|    0.215370|
|         360|  3.7276e+01|  3.7276e+01|   -5.856081|  2.9087e-02|    0.229931|
|         370|  1.9234e+01|  1.9234e+01|   -5.949221|  2.8391e-02|    0.242678|
|         380|  9.9241e+00|  9.9241e+00|   -6.070096|  2.6965e-02|    0.246818|
|         390|  6.1447e+01|  6.1447e+01|   -6.098360|  2.4976e-02|    0.240582|
|         400|  1.8348e+01|  1.8348e+01|   -6.083888|  2.4506e-02|    0.221287|
+-----------------------------------------------------------------------+
|        File Writing Summary       |              Filename             |
+-----------------------------------------------------------------------+
|SU2 binary restart                 |restart_flow_G7.dat                |
|Paraview                           |flow_G7.vtu                        |
|Paraview surface                   |surface_flow_G7.vtu                |
+-----------------------------------------------------------------------+
+-----------------------------------------------------------------------------+
|  Inner_Iter|     Min CFL|     Max CFL|      rms[P]|  Cauchy[CD]|          CD|
+-----------------------------------------------------------------------------+
|         410|  6.5745e+01|  6.5745e+01|   -6.108317|  2.4120e-02|    0.196199|
|         420|  1.1361e+01|  1.1361e+01|   -6.269169|  2.0916e-02|    0.178277|
|         430|  7.0342e+01|  7.0342e+01|   -6.298583|  1.5507e-02|    0.175155|
|         440|  3.6295e+01|  3.6295e+01|   -6.268539|  1.2987e-02|    0.176940|
|         450|  7.5261e+01|  7.5261e+01|   -6.219464|  1.2485e-02|    0.195586|
|         460|  3.8833e+01|  3.8833e+01|   -6.257790|  1.1741e-02|    0.205925|
|         470|  1.1596e+01|  1.1596e+01|   -6.428949|  8.7763e-03|    0.224855|
|         480|  7.1797e+01|  7.1797e+01|   -6.429270|  7.5671e-03|    0.229753|
|         490|  3.7045e+01|  3.7045e+01|   -6.376510|  6.2080e-03|    0.229365|
|         500|  1.9115e+01|  1.9115e+01|   -6.342658|  6.1586e-03|    0.222597|
|         510|  9.8627e+00|  9.8627e+00|   -6.401290|  6.3219e-03|    0.210841|
|         520|  6.1067e+01|  6.1067e+01|   -6.482322|  6.3884e-03|    0.200473|
|         530|  3.1509e+01|  3.1509e+01|   -6.589382|  6.4045e-03|    0.191140|
|         540|  6.5338e+01|  6.5338e+01|   -6.483441|  6.2017e-03|    0.181944|
|         550|  7.8406e+01|  7.8406e+01|   -6.492890|  5.9679e-03|    0.193456|
|         560|  4.0456e+01|  4.0456e+01|   -6.596653|  5.1899e-03|    0.200391|
|         570|  6.9907e+01|  6.9907e+01|   -6.619162|  5.2863e-03|    0.213109|
|         580|  6.9907e+01|  6.9907e+01|   -6.471200|  5.3096e-03|    0.211423|
|         590|  2.0874e+01|  2.0874e+01|   -6.502199|  5.1302e-03|    0.206827|
|         600|  1.0771e+01|  1.0771e+01|   -6.551574|  4.8563e-03|    0.201350|
+-----------------------------------------------------------------------+
|        File Writing Summary       |              Filename             |
+-----------------------------------------------------------------------+
|SU2 binary restart                 |restart_flow_G7.dat                |
|Paraview                           |flow_G7.vtu                        |
|Paraview surface                   |surface_flow_G7.vtu                |
+-----------------------------------------------------------------------+
+-----------------------------------------------------------------------------+
|  Inner_Iter|     Min CFL|     Max CFL|      rms[P]|  Cauchy[CD]|          CD|
+-----------------------------------------------------------------------------+
|         610|  6.6689e+01|  6.6689e+01|   -6.572140|  4.6766e-03|    0.197342|
|         620|  3.4410e+01|  3.4410e+01|   -6.595475|  4.5270e-03|    0.194154|
|         630|  7.1353e+01|  7.1353e+01|   -6.700676|  4.4974e-03|    0.192117|
|         640|  7.1353e+01|  7.1353e+01|   -6.905303|  4.5037e-03|    0.197423|
|         650|  7.1353e+01|  7.1353e+01|   -6.894035|  4.2498e-03|    0.201547|
|         660|  7.1353e+01|  7.1353e+01|   -6.909213|  3.8083e-03|    0.199452|
|         670|  7.1353e+01|  7.1353e+01|   -6.901610|  3.4954e-03|    0.195860|
|         680|  7.1353e+01|  7.1353e+01|   -6.979429|  3.4564e-03|    0.194312|
|         690|  7.1353e+01|  7.1353e+01|   -7.038585|  3.4226e-03|    0.194508|
|         700|  3.6816e+01|  3.6816e+01|   -7.071265|  3.0292e-03|    0.194756|
|         710|  7.6342e+01|  7.6342e+01|   -7.136367|  2.8294e-03|    0.194892|
|         720|  7.6342e+01|  7.6342e+01|   -7.158944|  2.4924e-03|    0.194261|
|         730|  7.6342e+01|  7.6342e+01|   -7.181844|  2.4125e-03|    0.194274|
|         740|  7.6342e+01|  7.6342e+01|   -7.202916|  2.4119e-03|    0.194904|
|         750|  7.6342e+01|  7.6342e+01|   -7.204201|  2.2997e-03|    0.194624|
|         760|  7.6342e+01|  7.6342e+01|   -7.153850|  2.1026e-03|    0.193619|
|         770|  7.6342e+01|  7.6342e+01|   -7.118676|  1.9083e-03|    0.193491|
|         780|  7.6342e+01|  7.6342e+01|   -7.142024|  1.7429e-03|    0.194757|
|         790|  7.6342e+01|  7.6342e+01|   -7.181145|  1.5748e-03|    0.196212|
|         800|  7.6342e+01|  7.6342e+01|   -7.196815|  1.3393e-03|    0.196635|
+-----------------------------------------------------------------------+
|        File Writing Summary       |              Filename             |
+-----------------------------------------------------------------------+
|SU2 binary restart                 |restart_flow_G7.dat                |
|Paraview                           |flow_G7.vtu                        |
|Paraview surface                   |surface_flow_G7.vtu                |
+-----------------------------------------------------------------------+
+-----------------------------------------------------------------------------+
|  Inner_Iter|     Min CFL|     Max CFL|      rms[P]|  Cauchy[CD]|          CD|
+-----------------------------------------------------------------------------+
|         810|  1.8996e+01|  1.8996e+01|   -7.194462|  1.2026e-03|    0.196449|
|         820|  9.8017e+00|  9.8017e+00|   -7.183229|  9.5873e-04|    0.196376|
|         830|  6.0690e+01|  6.0690e+01|   -7.180944|  8.8855e-04|    0.196424|
|         840|  3.1315e+01|  3.1315e+01|   -7.173589|  8.0524e-04|    0.196657|
|         850|  1.6158e+01|  1.6158e+01|   -7.163565|  7.1028e-04|    0.197277|
|         860|  8.3370e+00|  8.3370e+00|   -7.155719|  6.4623e-04|    0.198092|
|         870|  5.1620e+01|  5.1620e+01|   -7.153700|  5.8993e-04|    0.198535|
|         880|  2.6635e+01|  2.6635e+01|   -7.150697|  5.5317e-04|    0.199234|
|         890|  1.3743e+01|  1.3743e+01|   -7.151369|  4.5857e-04|    0.199944|
|         900|  8.5094e+01|  8.5094e+01|   -7.155723|  3.8410e-04|    0.200350|
|         910|  4.3906e+01|  4.3906e+01|   -7.163882|  3.4508e-04|    0.200566|
|         920|  2.2655e+01|  2.2655e+01|   -7.175905|  2.7761e-04|    0.200830|
|         930|  8.1176e+01|  8.1176e+01|   -7.189580|  2.5317e-04|    0.201199|
|         940|  8.1176e+01|  8.1176e+01|   -7.221586|  2.6195e-04|    0.201981|
|         950|  8.1176e+01|  8.1176e+01|   -7.264540|  2.7809e-04|    0.203056|
|         960|  8.1176e+01|  8.1176e+01|   -7.327539|  2.9374e-04|    0.204125|
|         970|  8.1176e+01|  8.1176e+01|   -7.402806|  2.9892e-04|    0.205053|
|         980|  8.1176e+00|  8.1176e+00|   -7.468399|  3.0777e-04|    0.205826|
|         990|  5.0262e+01|  5.0262e+01|   -7.484365|  2.9870e-04|    0.206026|
|        1000|  2.5934e+01|  2.5934e+01|   -7.503275|  2.9676e-04|    0.206335|
+-----------------------------------------------------------------------+
|        File Writing Summary       |              Filename             |
+-----------------------------------------------------------------------+
|SU2 binary restart                 |restart_flow_G7.dat                |
|Paraview                           |flow_G7.vtu                        |
|Paraview surface                   |surface_flow_G7.vtu                |
+-----------------------------------------------------------------------+
+-----------------------------------------------------------------------------+
|  Inner_Iter|     Min CFL|     Max CFL|      rms[P]|  Cauchy[CD]|          CD|
+-----------------------------------------------------------------------------+
|        1010|  7.7439e+01|  7.7439e+01|   -7.518911|  2.8411e-04|    0.206752|
|        1020|  7.7439e+01|  7.7439e+01|   -7.528187|  2.8611e-04|    0.207276|
|        1030|  7.7439e+01|  7.7439e+01|   -7.518981|  2.7107e-04|    0.207848|
|        1040|  1.3381e+01|  1.3381e+01|   -7.508147|  2.4937e-04|    0.208268|
|        1050|  8.2854e+01|  8.2854e+01|   -7.500295|  2.4602e-04|    0.208557|
|        1060|  4.2751e+01|  4.2751e+01|   -7.496348|  2.4550e-04|    0.208728|
|        1070|  7.3874e+01|  7.3874e+01|   -7.487401|  2.5089e-04|    0.209087|
|        1080|  7.3874e+01|  7.3874e+01|   -7.481645|  2.5478e-04|    0.209345|
|        1090|  7.3874e+01|  7.3874e+01|   -7.477094|  2.5382e-04|    0.209543|
|        1100|  7.3874e+01|  7.3874e+01|   -7.472910|  2.4526e-04|    0.209754|
|        1110|  7.3874e+01|  7.3874e+01|   -7.470061|  2.3351e-04|    0.210002|
|        1120|  7.3874e+01|  7.3874e+01|   -7.467928|  2.2856e-04|    0.210211|
|        1130|  7.3874e+01|  7.3874e+01|   -7.466339|  2.1697e-04|    0.210341|
|        1140|  1.0638e+01|  1.0638e+01|   -7.468142|  2.0398e-04|    0.210406|
|        1150|  6.5867e+01|  6.5867e+01|   -7.469628|  1.9674e-04|    0.210452|
|        1160|  3.3986e+01|  3.3986e+01|   -7.472214|  1.9293e-04|    0.210478|
|        1170|  7.0473e+01|  7.0473e+01|   -7.475947|  1.8825e-04|    0.210505|
|        1180|  7.0473e+01|  7.0473e+01|   -7.489185|  1.8114e-04|    0.210516|
|        1190|  7.0473e+01|  7.0473e+01|   -7.504373|  1.6575e-04|    0.210521|
|        1200|  7.0473e+01|  7.0473e+01|   -7.522513|  1.4487e-04|    0.210502|
+-----------------------------------------------------------------------+
|        File Writing Summary       |              Filename             |
+-----------------------------------------------------------------------+
|SU2 binary restart                 |restart_flow_G7.dat                |
|Paraview                           |flow_G7.vtu                        |
|Paraview surface                   |surface_flow_G7.vtu                |
+-----------------------------------------------------------------------+
+-----------------------------------------------------------------------------+
|  Inner_Iter|     Min CFL|     Max CFL|      rms[P]|  Cauchy[CD]|          CD|
+-----------------------------------------------------------------------------+
|        1210|  7.0473e+01|  7.0473e+01|   -7.544429|  1.2435e-04|    0.210478|
|        1220|  2.5252e+01|  2.5252e+01|   -7.559078|  1.0639e-04|    0.210467|
|        1230|  1.3029e+01|  1.3029e+01|   -7.569116|  9.1537e-05|    0.210466|
|        1240|  6.7228e+01|  6.7228e+01|   -7.575397|  8.8123e-05|    0.210442|
|        1250|  6.7228e+01|  6.7228e+01|   -7.586969|  8.4158e-05|    0.210335|
|        1260|  6.7228e+01|  6.7228e+01|   -7.593819|  7.8440e-05|    0.210211|
|        1270|  6.7228e+01|  6.7228e+01|   -7.594355|  7.1008e-05|    0.210069|
|        1280|  6.7228e+01|  6.7228e+01|   -7.591800|  6.2803e-05|    0.209922|
|        1290|  6.7228e+01|  6.7228e+01|   -7.589386|  5.7522e-05|    0.209775|
|        1300|  6.7228e+01|  6.7228e+01|   -7.588825|  5.5084e-05|    0.209612|
|        1310|  6.7228e+01|  6.7228e+01|   -7.590369|  5.5472e-05|    0.209420|
|        1320|  6.7228e+01|  6.7228e+01|   -7.595797|  5.2611e-05|    0.209210|
|        1330|  6.7228e+01|  6.7228e+01|   -7.606914|  5.1941e-05|    0.208987|
|        1340|  6.7228e+01|  6.7228e+01|   -7.621086|  5.2708e-05|    0.208750|
|        1350|  6.7228e+01|  6.7228e+01|   -7.637612|  5.3412e-05|    0.208503|
|        1360|  6.7228e+01|  6.7228e+01|   -7.656616|  5.3518e-05|    0.208251|
|        1370|  6.7228e+01|  6.7228e+01|   -7.676979|  5.4520e-05|    0.207992|
|        1380|  6.7228e+01|  6.7228e+01|   -7.697290|  5.7184e-05|    0.207725|
|        1390|  6.7228e+01|  6.7228e+01|   -7.716824|  6.1164e-05|    0.207455|
|        1400|  1.1617e+01|  1.1617e+01|   -7.735600|  6.4146e-05|    0.207254|
+-----------------------------------------------------------------------+
|        File Writing Summary       |              Filename             |
+-----------------------------------------------------------------------+
|SU2 binary restart                 |restart_flow_G7.dat                |
|Paraview                           |flow_G7.vtu                        |
|Paraview surface                   |surface_flow_G7.vtu                |
+-----------------------------------------------------------------------+
+-----------------------------------------------------------------------------+
|  Inner_Iter|     Min CFL|     Max CFL|      rms[P]|  Cauchy[CD]|          CD|
+-----------------------------------------------------------------------------+
|        1410|  7.1930e+01|  7.1930e+01|   -7.741647|  6.5929e-05|    0.207137|
|        1420|  3.7114e+01|  3.7114e+01|   -7.749314|  6.7036e-05|    0.207049|
|        1430|  6.4133e+01|  6.4133e+01|   -7.756444|  7.1434e-05|    0.206810|
|        1440|  6.4133e+01|  6.4133e+01|   -7.769366|  7.6426e-05|    0.206545|
|        1450|  6.4133e+01|  6.4133e+01|   -7.779480|  8.1161e-05|    0.206283|
|        1460|  6.4133e+01|  6.4133e+01|   -7.787285|  8.5628e-05|    0.206029|
|        1470|  6.4133e+01|  6.4133e+01|   -7.792625|  9.0145e-05|    0.205786|
|        1480|  6.4133e+01|  6.4133e+01|   -7.795573|  9.4515e-05|    0.205552|
|        1490|  6.4133e+01|  6.4133e+01|   -7.797255|  9.8471e-05|    0.205325|
|        1500|  6.4133e+01|  6.4133e+01|   -7.798884|  1.0075e-04|    0.205104|
|        1510|  6.4133e+01|  6.4133e+01|   -7.801281|  1.0249e-04|    0.204893|
|        1520|  6.4133e+01|  6.4133e+01|   -7.805034|  1.0367e-04|    0.204695|
|        1530|  6.4133e+01|  6.4133e+01|   -7.811089|  1.0456e-04|    0.204506|
|        1540|  6.4133e+01|  6.4133e+01|   -7.820023|  1.0533e-04|    0.204323|
|        1550|  6.4133e+01|  6.4133e+01|   -7.831796|  1.0561e-04|    0.204150|
|        1560|  6.4133e+01|  6.4133e+01|   -7.846230|  1.0511e-04|    0.203989|
|        1570|  6.4133e+01|  6.4133e+01|   -7.863042|  1.0404e-04|    0.203839|
|        1580|  6.4133e+01|  6.4133e+01|   -7.881721|  1.0249e-04|    0.203701|
|        1590|  6.4133e+01|  6.4133e+01|   -7.901640|  1.0044e-04|    0.203573|
|        1600|  6.4133e+01|  6.4133e+01|   -7.922221|  9.8038e-05|    0.203455|
+-----------------------------------------------------------------------+
|        File Writing Summary       |              Filename             |
+-----------------------------------------------------------------------+
|SU2 binary restart                 |restart_flow_G7.dat                |
|Paraview                           |flow_G7.vtu                        |
|Paraview surface                   |surface_flow_G7.vtu                |
+-----------------------------------------------------------------------+
+-----------------------------------------------------------------------------+
|  Inner_Iter|     Min CFL|     Max CFL|      rms[P]|  Cauchy[CD]|          CD|
+-----------------------------------------------------------------------------+
|        1610|  6.4133e+01|  6.4133e+01|   -7.943637|  9.5350e-05|    0.203346|
|        1620|  6.4133e+01|  6.4133e+01|   -7.965038|  9.2272e-05|    0.203249|
|        1630|  6.4133e+01|  6.4133e+01|   -7.986491|  8.8851e-05|    0.203162|
|        1640|  6.4133e+01|  6.4133e+01|   -8.008147|  8.5158e-05|    0.203085|
|        1650|  6.4133e+01|  6.4133e+01|   -8.030120|  8.2599e-05|    0.203019|
|        1660|  6.4133e+01|  6.4133e+01|   -8.052607|  8.1447e-05|    0.202962|
|        1670|  6.4133e+01|  6.4133e+01|   -8.075558|  8.0657e-05|    0.202916|
|        1680|  6.4133e+01|  6.4133e+01|   -8.098732|  7.6758e-05|    0.202879|
|        1690|  6.4133e+01|  6.4133e+01|   -8.121807|  7.2150e-05|    0.202853|
|        1700|  6.4133e+01|  6.4133e+01|   -8.144421|  6.7376e-05|    0.202838|
|        1710|  6.4133e+01|  6.4133e+01|   -8.166213|  6.2556e-05|    0.202832|
|        1720|  6.4133e+01|  6.4133e+01|   -8.186855|  5.7922e-05|    0.202836|
|        1730|  6.4133e+01|  6.4133e+01|   -8.206057|  5.3643e-05|    0.202849|
|        1740|  6.4133e+01|  6.4133e+01|   -8.223543|  4.9692e-05|    0.202873|
|        1750|  6.4133e+01|  6.4133e+01|   -8.239055|  4.6063e-05|    0.202908|
|        1760|  6.4133e+01|  6.4133e+01|   -8.252440|  4.2833e-05|    0.202952|
|        1770|  6.4133e+01|  6.4133e+01|   -8.263836|  4.0039e-05|    0.203007|
|        1780|  6.4133e+01|  6.4133e+01|   -8.273764|  3.7600e-05|    0.203071|
|        1790|  6.4133e+01|  6.4133e+01|   -8.283074|  3.5473e-05|    0.203144|
|        1800|  6.4133e+01|  6.4133e+01|   -8.292785|  3.3705e-05|    0.203227|
+-----------------------------------------------------------------------+
|        File Writing Summary       |              Filename             |
+-----------------------------------------------------------------------+
|SU2 binary restart                 |restart_flow_G7.dat                |
|Paraview                           |flow_G7.vtu                        |
|Paraview surface                   |surface_flow_G7.vtu                |
+-----------------------------------------------------------------------+
+-----------------------------------------------------------------------------+
|  Inner_Iter|     Min CFL|     Max CFL|      rms[P]|  Cauchy[CD]|          CD|
+-----------------------------------------------------------------------------+
|        1810|  6.4133e+01|  6.4133e+01|   -8.303931|  3.2336e-05|    0.203318|
|        1820|  1.9150e+01|  1.9150e+01|   -8.316776|  3.0365e-05|    0.203367|
|        1830|  9.8810e+00|  9.8810e+00|   -8.322477|  2.8665e-05|    0.203418|
|        1840|  6.1181e+01|  6.1181e+01|   -8.328388|  2.6984e-05|    0.203461|
|        1850|  6.1181e+01|  6.1181e+01|   -8.340931|  2.6775e-05|    0.203568|
|        1860|  6.1181e+01|  6.1181e+01|   -8.361518|  2.6838e-05|    0.203680|
|        1870|  6.1181e+01|  6.1181e+01|   -8.384838|  2.7239e-05|    0.203798|
|        1880|  6.1181e+01|  6.1181e+01|   -8.410662|  2.7998e-05|    0.203924|
|        1890|  6.1181e+01|  6.1181e+01|   -8.439261|  2.9077e-05|    0.204056|
|        1900|  6.1181e+01|  6.1181e+01|   -8.469341|  3.0427e-05|    0.204192|
|        1910|  6.1181e+01|  6.1181e+01|   -8.499330|  3.2063e-05|    0.204332|
|        1920|  6.1181e+01|  6.1181e+01|   -8.528224|  3.3997e-05|    0.204478|
|        1930|  6.1181e+01|  6.1181e+01|   -8.555003|  3.6218e-05|    0.204628|
|        1940|  6.1181e+01|  6.1181e+01|   -8.578767|  3.8717e-05|    0.204782|
|        1950|  6.1181e+01|  6.1181e+01|   -8.598892|  4.1479e-05|    0.204940|
|        1960|  6.1181e+01|  6.1181e+01|   -8.615710|  4.4501e-05|    0.205101|
|        1970|  6.1181e+01|  6.1181e+01|   -8.630141|  4.7615e-05|    0.205265|
|        1980|  6.1181e+01|  6.1181e+01|   -8.642752|  5.0581e-05|    0.205431|
|        1990|  6.1181e+01|  6.1181e+01|   -8.654277|  5.3388e-05|    0.205599|
|        2000|  6.1181e+01|  6.1181e+01|   -8.665712|  5.6033e-05|    0.205770|
+-----------------------------------------------------------------------+
|        File Writing Summary       |              Filename             |
+-----------------------------------------------------------------------+
|SU2 binary restart                 |restart_flow_G7.dat                |
|Paraview                           |flow_G7.vtu                        |
|Paraview surface                   |surface_flow_G7.vtu                |
+-----------------------------------------------------------------------+
+-----------------------------------------------------------------------------+
|  Inner_Iter|     Min CFL|     Max CFL|      rms[P]|  Cauchy[CD]|          CD|
+-----------------------------------------------------------------------------+
|        2010|  6.1181e+01|  6.1181e+01|   -8.677552|  5.8514e-05|    0.205943|
|        2020|  6.1181e+01|  6.1181e+01|   -8.689917|  6.0834e-05|    0.206118|
|        2030|  6.1181e+01|  6.1181e+01|   -8.702991|  6.2994e-05|    0.206294|
|        2040|  6.1181e+01|  6.1181e+01|   -8.716707|  6.4992e-05|    0.206472|
|        2050|  6.1181e+01|  6.1181e+01|   -8.730616|  6.6826e-05|    0.206651|
|        2060|  6.1181e+01|  6.1181e+01|   -8.744211|  6.8500e-05|    0.206830|
|        2070|  6.1181e+01|  6.1181e+01|   -8.757046|  7.1018e-05|    0.207010|
|        2080|  6.1181e+01|  6.1181e+01|   -8.768726|  7.3491e-05|    0.207190|
|        2090|  6.1181e+01|  6.1181e+01|   -8.779078|  7.6151e-05|    0.207371|
|        2100|  6.1181e+01|  6.1181e+01|   -8.788233|  7.7521e-05|    0.207552|
|        2110|  6.1181e+01|  6.1181e+01|   -8.796554|  7.8799e-05|    0.207733|
|        2120|  6.1181e+01|  6.1181e+01|   -8.804518|  7.9955e-05|    0.207913|
|        2130|  6.1181e+01|  6.1181e+01|   -8.812636|  8.0942e-05|    0.208093|
|        2140|  6.1181e+01|  6.1181e+01|   -8.821376|  8.1789e-05|    0.208271|
|        2150|  6.1181e+01|  6.1181e+01|   -8.831068|  8.2541e-05|    0.208449|
|        2160|  6.1181e+01|  6.1181e+01|   -8.841831|  8.3179e-05|    0.208626|
|        2170|  6.1181e+01|  6.1181e+01|   -8.853548|  8.3691e-05|    0.208802|
|        2180|  6.1181e+01|  6.1181e+01|   -8.865904|  8.4083e-05|    0.208975|
|        2190|  6.1181e+01|  6.1181e+01|   -8.878451|  8.4366e-05|    0.209148|
|        2200|  6.1181e+01|  6.1181e+01|   -8.890671|  8.4544e-05|    0.209318|
+-----------------------------------------------------------------------+
|        File Writing Summary       |              Filename             |
+-----------------------------------------------------------------------+
|SU2 binary restart                 |restart_flow_G7.dat                |
|Paraview                           |flow_G7.vtu                        |
|Paraview surface                   |surface_flow_G7.vtu                |
+-----------------------------------------------------------------------+
+-----------------------------------------------------------------------------+
|  Inner_Iter|     Min CFL|     Max CFL|      rms[P]|  Cauchy[CD]|          CD|
+-----------------------------------------------------------------------------+
|        2210|  6.1181e+01|  6.1181e+01|   -8.902058|  8.4616e-05|    0.209486|
|        2220|  6.1181e+01|  6.1181e+01|   -8.912197|  8.4589e-05|    0.209652|
|        2230|  6.1181e+01|  6.1181e+01|   -8.920849|  8.4468e-05|    0.209815|
|        2240|  6.1181e+01|  6.1181e+01|   -8.927984|  8.4257e-05|    0.209976|
|        2250|  6.1181e+01|  6.1181e+01|   -8.933773|  8.3953e-05|    0.210135|
|        2260|  6.1181e+01|  6.1181e+01|   -8.938518|  8.3559e-05|    0.210291|
|        2270|  6.1181e+01|  6.1181e+01|   -8.942581|  8.3076e-05|    0.210444|
|        2280|  6.1181e+01|  6.1181e+01|   -8.946291|  8.2508e-05|    0.210594|
|        2290|  6.1181e+01|  6.1181e+01|   -8.949905|  8.1863e-05|    0.210741|
|        2300|  6.1181e+01|  6.1181e+01|   -8.953562|  8.1144e-05|    0.210886|
|        2310|  6.1181e+01|  6.1181e+01|   -8.957287|  8.0354e-05|    0.211027|
|        2320|  6.1181e+01|  6.1181e+01|   -8.960991|  7.9495e-05|    0.211165|
|        2330|  6.1181e+01|  6.1181e+01|   -8.964491|  7.8569e-05|    0.211301|
|        2340|  6.1181e+01|  6.1181e+01|   -8.967549|  7.7580e-05|    0.211433|
|        2350|  6.1181e+01|  6.1181e+01|   -8.969920|  7.6532e-05|    0.211562|
|        2360|  6.1181e+01|  6.1181e+01|   -8.971393|  7.5431e-05|    0.211687|
|        2370|  6.1181e+01|  6.1181e+01|   -8.971842|  7.4279e-05|    0.211810|
|        2380|  6.1181e+01|  6.1181e+01|   -8.971237|  7.3081e-05|    0.211930|
|        2390|  6.1181e+01|  6.1181e+01|   -8.969637|  7.1840e-05|    0.212046|
|        2400|  6.1181e+01|  6.1181e+01|   -8.967169|  7.0559e-05|    0.212159|
+-----------------------------------------------------------------------+
|        File Writing Summary       |              Filename             |
+-----------------------------------------------------------------------+
|SU2 binary restart                 |restart_flow_G7.dat                |
|Paraview                           |flow_G7.vtu                        |
|Paraview surface                   |surface_flow_G7.vtu                |
+-----------------------------------------------------------------------+
+-----------------------------------------------------------------------------+
|  Inner_Iter|     Min CFL|     Max CFL|      rms[P]|  Cauchy[CD]|          CD|
+-----------------------------------------------------------------------------+
|        2410|  6.1181e+01|  6.1181e+01|   -8.963990|  6.9244e-05|    0.212269|
|        2420|  6.1181e+01|  6.1181e+01|   -8.960269|  6.7898e-05|    0.212376|
|        2430|  6.1181e+01|  6.1181e+01|   -8.956153|  6.6526e-05|    0.212480|
|        2440|  6.1181e+01|  6.1181e+01|   -8.951761|  6.5131e-05|    0.212581|
|        2450|  6.1181e+01|  6.1181e+01|   -8.947177|  6.3717e-05|    0.212679|
|        2460|  6.1181e+01|  6.1181e+01|   -8.942450|  6.2288e-05|    0.212774|
|        2470|  6.1181e+01|  6.1181e+01|   -8.937608|  6.0847e-05|    0.212865|
|        2480|  6.1181e+01|  6.1181e+01|   -8.932670|  5.9398e-05|    0.212954|
|        2490|  6.1181e+01|  6.1181e+01|   -8.927646|  5.7943e-05|    0.213040|
|        2500|  6.1181e+01|  6.1181e+01|   -8.922552|  5.6485e-05|    0.213123|
|        2510|  6.1181e+01|  6.1181e+01|   -8.917404|  5.5027e-05|    0.213204|
|        2520|  2.6307e+01|  2.6307e+01|   -8.920848|  5.2658e-05|    0.213232|
|        2530|  1.3574e+01|  1.3574e+01|   -8.918085|  5.0530e-05|    0.213271|
|        2540|  5.8364e+01|  5.8364e+01|   -8.911177|  4.8524e-05|    0.213313|
|        2550|  5.8364e+01|  5.8364e+01|   -8.905261|  4.7081e-05|    0.213383|
|        2560|  5.8364e+01|  5.8364e+01|   -8.901093|  4.5680e-05|    0.213451|
|        2570|  5.8364e+01|  5.8364e+01|   -8.896534|  4.4290e-05|    0.213517|
|        2580|  5.8364e+01|  5.8364e+01|   -8.891751|  4.2914e-05|    0.213580|
|        2590|  5.8364e+01|  5.8364e+01|   -8.887428|  4.1561e-05|    0.213641|
|        2600|  5.8364e+01|  5.8364e+01|   -8.883382|  4.0229e-05|    0.213700|
+-----------------------------------------------------------------------+
|        File Writing Summary       |              Filename             |
+-----------------------------------------------------------------------+
|SU2 binary restart                 |restart_flow_G7.dat                |
|Paraview                           |flow_G7.vtu                        |
|Paraview surface                   |surface_flow_G7.vtu                |
+-----------------------------------------------------------------------+
+-----------------------------------------------------------------------------+
|  Inner_Iter|     Min CFL|     Max CFL|      rms[P]|  Cauchy[CD]|          CD|
+-----------------------------------------------------------------------------+
|        2610|  5.8364e+01|  5.8364e+01|   -8.879495|  3.8916e-05|    0.213757|
|        2620|  5.8364e+01|  5.8364e+01|   -8.875722|  3.7623e-05|    0.213812|
|        2630|  5.8364e+01|  5.8364e+01|   -8.872157|  3.6350e-05|    0.213864|
|        2640|  5.8364e+01|  5.8364e+01|   -8.868733|  3.5103e-05|    0.213915|
|        2650|  5.8364e+01|  5.8364e+01|   -8.865541|  3.3881e-05|    0.213964|
|        2660|  5.8364e+01|  5.8364e+01|   -8.862801|  3.2686e-05|    0.214011|
|        2670|  5.8364e+01|  5.8364e+01|   -8.860471|  3.1518e-05|    0.214056|
|        2680|  5.8364e+01|  5.8364e+01|   -8.858311|  3.0378e-05|    0.214100|
|        2690|  5.8364e+01|  5.8364e+01|   -8.856198|  2.9264e-05|    0.214142|
|        2700|  5.8364e+01|  5.8364e+01|   -8.854193|  2.8178e-05|    0.214182|
|        2710|  5.8364e+01|  5.8364e+01|   -8.852431|  2.7119e-05|    0.214221|
|        2720|  5.8364e+01|  5.8364e+01|   -8.850974|  2.6087e-05|    0.214258|
|        2730|  5.8364e+01|  5.8364e+01|   -8.849823|  2.5085e-05|    0.214294|
|        2740|  5.8364e+01|  5.8364e+01|   -8.848945|  2.4112e-05|    0.214328|
|        2750|  5.8364e+01|  5.8364e+01|   -8.848285|  2.3168e-05|    0.214361|
|        2760|  5.8364e+01|  5.8364e+01|   -8.847833|  2.2255e-05|    0.214393|
|        2770|  5.8364e+01|  5.8364e+01|   -8.847660|  2.2283e-05|    0.214424|
|        2780|  5.8364e+01|  5.8364e+01|   -8.847847|  2.2104e-05|    0.214453|
|        2790|  5.8364e+01|  5.8364e+01|   -8.848426|  2.1839e-05|    0.214481|
|        2800|  5.8364e+01|  5.8364e+01|   -8.849363|  2.1050e-05|    0.214508|
+-----------------------------------------------------------------------+
|        File Writing Summary       |              Filename             |
+-----------------------------------------------------------------------+
|SU2 binary restart                 |restart_flow_G7.dat                |
|Paraview                           |flow_G7.vtu                        |
|Paraview surface                   |surface_flow_G7.vtu                |
+-----------------------------------------------------------------------+
+-----------------------------------------------------------------------------+
|  Inner_Iter|     Min CFL|     Max CFL|      rms[P]|  Cauchy[CD]|          CD|
+-----------------------------------------------------------------------------+
|        2810|  5.8364e+01|  5.8364e+01|   -8.850605|  2.0257e-05|    0.214535|
|        2820|  5.8364e+01|  5.8364e+01|   -8.852118|  1.9494e-05|    0.214560|
|        2830|  5.8364e+01|  5.8364e+01|   -8.853904|  1.8759e-05|    0.214584|
|        2840|  5.8364e+01|  5.8364e+01|   -8.855974|  1.8044e-05|    0.214607|
|        2850|  5.8364e+01|  5.8364e+01|   -8.858316|  1.7352e-05|    0.214629|
|        2860|  5.8364e+01|  5.8364e+01|   -8.860908|  1.6686e-05|    0.214651|
|        2870|  5.8364e+01|  5.8364e+01|   -8.863717|  1.6047e-05|    0.214671|
|        2880|  5.8364e+01|  5.8364e+01|   -8.866727|  1.5433e-05|    0.214691|
|        2890|  5.8364e+01|  5.8364e+01|   -8.869930|  1.4842e-05|    0.214710|
|        2900|  5.8364e+01|  5.8364e+01|   -8.873324|  1.4272e-05|    0.214729|
|        2910|  5.8364e+01|  5.8364e+01|   -8.876909|  1.3724e-05|    0.214747|
|        2920|  5.8364e+01|  5.8364e+01|   -8.881465|  1.3199e-05|    0.214764|
|        2930|  5.8364e+01|  5.8364e+01|   -8.885692|  1.2698e-05|    0.214781|
|        2940|  5.8364e+01|  5.8364e+01|   -8.889862|  1.2218e-05|    0.214797|
|        2950|  5.8364e+01|  5.8364e+01|   -8.893938|  1.1760e-05|    0.214813|
|        2960|  5.8364e+01|  5.8364e+01|   -8.898033|  1.1324e-05|    0.214828|
|        2970|  5.8364e+01|  5.8364e+01|   -8.902320|  1.0909e-05|    0.214843|
|        2980|  5.8364e+01|  5.8364e+01|   -8.906898|  1.0514e-05|    0.214858|
|        2990|  5.8364e+01|  5.8364e+01|   -8.911721|  1.0137e-05|    0.214872|
|        3000|  5.8364e+01|  5.8364e+01|   -8.916694|  9.7800e-06|    0.214886|
+-----------------------------------------------------------------------+
|        File Writing Summary       |              Filename             |
+-----------------------------------------------------------------------+
|SU2 binary restart                 |restart_flow_G7.dat                |
|Paraview                           |flow_G7.vtu                        |
|Paraview surface                   |surface_flow_G7.vtu                |
+-----------------------------------------------------------------------+
+-----------------------------------------------------------------------------+
|  Inner_Iter|     Min CFL|     Max CFL|      rms[P]|  Cauchy[CD]|          CD|
+-----------------------------------------------------------------------------+
|        3010|  5.8364e+01|  5.8364e+01|   -8.921733|  9.4408e-06|    0.214900|
|        3020|  5.8364e+01|  5.8364e+01|   -8.926816|  9.1197e-06|    0.214913|
|        3030|  5.8364e+01|  5.8364e+01|   -8.931978|  8.8165e-06|    0.214926|
|        3040|  5.8364e+01|  5.8364e+01|   -8.937278|  8.5309e-06|    0.214939|
|        3050|  5.8364e+01|  5.8364e+01|   -8.942755|  8.2628e-06|    0.214952|
|        3060|  5.8364e+01|  5.8364e+01|   -8.948400|  8.0118e-06|    0.214965|
|        3070|  5.8364e+01|  5.8364e+01|   -8.954179|  7.7776e-06|    0.214977|
|        3080|  5.8364e+01|  5.8364e+01|   -8.960069|  7.5601e-06|    0.214990|
|        3090|  5.8364e+01|  5.8364e+01|   -8.966077|  7.3588e-06|    0.215002|
|        3100|  5.8364e+01|  5.8364e+01|   -8.972235|  7.1732e-06|    0.215014|
|        3110|  5.8364e+01|  5.8364e+01|   -8.978573|  7.0030e-06|    0.215027|
|        3120|  5.8364e+01|  5.8364e+01|   -8.985094|  6.8478e-06|    0.215039|
|        3130|  5.8364e+01|  5.8364e+01|   -8.991778|  6.7072e-06|    0.215051|
|        3140|  5.8364e+01|  5.8364e+01|   -8.998595|  6.5806e-06|    0.215064|
|        3150|  5.8364e+01|  5.8364e+01|   -9.005521|  6.4674e-06|    0.215076|
|        3160|  5.8364e+01|  5.8364e+01|   -9.012554|  6.3670e-06|    0.215089|
|        3170|  5.8364e+01|  5.8364e+01|   -9.019710|  6.2770e-06|    0.215101|
|        3180|  5.8364e+01|  5.8364e+01|   -9.027002|  6.1965e-06|    0.215114|
|        3190|  5.8364e+01|  5.8364e+01|   -9.034429|  6.1281e-06|    0.215126|
|        3200|  5.8364e+01|  5.8364e+01|   -9.041977|  6.0714e-06|    0.215139|
+-----------------------------------------------------------------------+
|        File Writing Summary       |              Filename             |
+-----------------------------------------------------------------------+
|SU2 binary restart                 |restart_flow_G7.dat                |
|Paraview                           |flow_G7.vtu                        |
|Paraview surface                   |surface_flow_G7.vtu                |
+-----------------------------------------------------------------------+
+-----------------------------------------------------------------------------+
|  Inner_Iter|     Min CFL|     Max CFL|      rms[P]|  Cauchy[CD]|          CD|
+-----------------------------------------------------------------------------+
|        3210|  5.8364e+01|  5.8364e+01|   -9.049629|  6.0256e-06|    0.215152|
|        3220|  5.8364e+01|  5.8364e+01|   -9.057374|  5.9899e-06|    0.215165|
|        3230|  5.8364e+01|  5.8364e+01|   -9.065212|  5.9638e-06|    0.215179|
|        3240|  5.8364e+01|  5.8364e+01|   -9.073153|  5.9467e-06|    0.215192|
|        3250|  5.8364e+01|  5.8364e+01|   -9.081205|  5.9383e-06|    0.215205|
|        3260|  5.8364e+01|  5.8364e+01|   -9.089362|  5.9387e-06|    0.215219|
|        3270|  5.8364e+01|  5.8364e+01|   -9.097611|  5.9472e-06|    0.215233|
|        3280|  5.8364e+01|  5.8364e+01|   -9.105943|  5.9630e-06|    0.215247|
|        3290|  5.8364e+01|  5.8364e+01|   -9.114355|  5.9855e-06|    0.215261|
|        3300|  5.8364e+01|  5.8364e+01|   -9.122852|  6.0140e-06|    0.215275|
|        3310|  5.8364e+01|  5.8364e+01|   -9.131439|  6.0482e-06|    0.215290|
|        3320|  5.8364e+01|  5.8364e+01|   -9.140119|  6.0878e-06|    0.215305|
|        3330|  5.8364e+01|  5.8364e+01|   -9.148882|  6.1325e-06|    0.215320|
|        3340|  5.8364e+01|  5.8364e+01|   -9.157723|  6.1820e-06|    0.215335|
|        3350|  5.8364e+01|  5.8364e+01|   -9.166644|  6.2359e-06|    0.215350|
|        3360|  5.8364e+01|  5.8364e+01|   -9.175649|  6.2938e-06|    0.215365|
|        3370|  5.8364e+01|  5.8364e+01|   -9.184738|  6.3551e-06|    0.215381|
|        3380|  5.8364e+01|  5.8364e+01|   -9.193909|  6.4194e-06|    0.215397|
|        3390|  5.8364e+01|  5.8364e+01|   -9.203155|  6.4863e-06|    0.215413|
|        3400|  5.8364e+01|  5.8364e+01|   -9.212473|  6.5558e-06|    0.215429|
+-----------------------------------------------------------------------+
|        File Writing Summary       |              Filename             |
+-----------------------------------------------------------------------+
|SU2 binary restart                 |restart_flow_G7.dat                |
|Paraview                           |flow_G7.vtu                        |
|Paraview surface                   |surface_flow_G7.vtu                |
+-----------------------------------------------------------------------+
+-----------------------------------------------------------------------------+
|  Inner_Iter|     Min CFL|     Max CFL|      rms[P]|  Cauchy[CD]|          CD|
+-----------------------------------------------------------------------------+
|        3410|  5.8364e+01|  5.8364e+01|   -9.221855|  6.6274e-06|    0.215445|
|        3420|  5.8364e+01|  5.8364e+01|   -9.231294|  6.7010e-06|    0.215462|
|        3430|  5.8364e+01|  5.8364e+01|   -9.240779|  6.7760e-06|    0.215479|
|        3440|  5.8364e+01|  5.8364e+01|   -9.250302|  6.8520e-06|    0.215495|
|        3450|  5.8364e+01|  5.8364e+01|   -9.259853|  6.9285e-06|    0.215512|
|        3460|  5.8364e+01|  5.8364e+01|   -9.269426|  7.0053e-06|    0.215529|
|        3470|  5.8364e+01|  5.8364e+01|   -9.279016|  7.0821e-06|    0.215547|
|        3480|  5.8364e+01|  5.8364e+01|   -9.288618|  7.1587e-06|    0.215564|
|        3490|  5.8364e+01|  5.8364e+01|   -9.298224|  7.2351e-06|    0.215581|
|        3500|  5.8364e+01|  5.8364e+01|   -9.307826|  7.3111e-06|    0.215599|
|        3510|  5.8364e+01|  5.8364e+01|   -9.317415|  7.3862e-06|    0.215617|
|        3520|  5.8364e+01|  5.8364e+01|   -9.326989|  7.4601e-06|    0.215635|
|        3530|  5.8364e+01|  5.8364e+01|   -9.336543|  7.5328e-06|    0.215653|
|        3540|  5.8364e+01|  5.8364e+01|   -9.346076|  7.6039e-06|    0.215671|
|        3550|  5.8364e+01|  5.8364e+01|   -9.355582|  7.6734e-06|    0.215689|
|        3560|  5.8364e+01|  5.8364e+01|   -9.365056|  7.7412e-06|    0.215707|
|        3570|  5.8364e+01|  5.8364e+01|   -9.374487|  7.8070e-06|    0.215725|
|        3580|  5.8364e+01|  5.8364e+01|   -9.383871|  7.8707e-06|    0.215744|
|        3590|  5.8364e+01|  5.8364e+01|   -9.393200|  7.9321e-06|    0.215762|
|        3600|  2.5095e+01|  2.5095e+01|   -9.407844|  7.8119e-06|    0.215771|
+-----------------------------------------------------------------------+
|        File Writing Summary       |              Filename             |
+-----------------------------------------------------------------------+
|SU2 binary restart                 |restart_flow_G7.dat                |
|Paraview                           |flow_G7.vtu                        |
|Paraview surface                   |surface_flow_G7.vtu                |
+-----------------------------------------------------------------------+
+-----------------------------------------------------------------------------+
|  Inner_Iter|     Min CFL|     Max CFL|      rms[P]|  Cauchy[CD]|          CD|
+-----------------------------------------------------------------------------+
|        3610|  1.2949e+01|  1.2949e+01|   -9.412969|  7.6924e-06|    0.215780|
|        3620|  6.6813e+00|  6.6813e+00|   -9.410111|  7.5983e-06|    0.215790|
|        3630|  4.1369e+01|  4.1369e+01|   -9.420305|  7.4064e-06|    0.215796|
|        3640|  5.9571e+01|  5.9571e+01|   -9.418533|  7.4410e-06|    0.215814|
|        3650|  5.9571e+01|  5.9571e+01|   -9.428284|  7.4925e-06|    0.215833|
|        3660|  5.9571e+01|  5.9571e+01|   -9.437227|  7.5390e-06|    0.215852|
|        3670|  5.9571e+01|  5.9571e+01|   -9.446017|  7.5851e-06|    0.215871|
|        3680|  5.9571e+01|  5.9571e+01|   -9.454863|  7.6305e-06|    0.215890|
|        3690|  5.9571e+01|  5.9571e+01|   -9.463803|  7.6719e-06|    0.215909|
|        3700|  5.9571e+01|  5.9571e+01|   -9.473013|  7.7087e-06|    0.215928|
|        3710|  5.9571e+01|  5.9571e+01|   -9.482209|  7.7414e-06|    0.215947|
|        3720|  5.9571e+01|  5.9571e+01|   -9.490865|  7.7715e-06|    0.215966|
|        3730|  5.9571e+01|  5.9571e+01|   -9.498935|  7.8004e-06|    0.215985|
|        3740|  5.9571e+01|  5.9571e+01|   -9.507008|  7.8272e-06|    0.216004|
|        3750|  5.9571e+01|  5.9571e+01|   -9.515587|  7.8511e-06|    0.216023|
|        3760|  5.9571e+01|  5.9571e+01|   -9.524418|  7.8719e-06|    0.216042|
|        3770|  5.9571e+01|  5.9571e+01|   -9.532936|  7.8893e-06|    0.216060|
|        3780|  5.9571e+01|  5.9571e+01|   -9.540882|  7.9032e-06|    0.216079|
|        3790|  5.9571e+01|  5.9571e+01|   -9.548397|  7.9141e-06|    0.216098|
|        3800|  5.9571e+01|  5.9571e+01|   -9.555849|  7.9222e-06|    0.216116|
+-----------------------------------------------------------------------+
|        File Writing Summary       |              Filename             |
+-----------------------------------------------------------------------+
|SU2 binary restart                 |restart_flow_G7.dat                |
|Paraview                           |flow_G7.vtu                        |
|Paraview surface                   |surface_flow_G7.vtu                |
+-----------------------------------------------------------------------+
+-----------------------------------------------------------------------------+
|  Inner_Iter|     Min CFL|     Max CFL|      rms[P]|  Cauchy[CD]|          CD|
+-----------------------------------------------------------------------------+
|        3810|  5.9571e+01|  5.9571e+01|   -9.563498|  7.9275e-06|    0.216135|
|        3820|  5.9571e+01|  5.9571e+01|   -9.571316|  7.9300e-06|    0.216153|
|        3830|  5.9571e+01|  5.9571e+01|   -9.579048|  7.9297e-06|    0.216172|
|        3840|  5.9571e+01|  5.9571e+01|   -9.586425|  7.9268e-06|    0.216190|
|        3850|  5.9571e+01|  5.9571e+01|   -9.593407|  8.1003e-06|    0.216208|
|        3860|  5.9571e+01|  5.9571e+01|   -9.600192|  8.2679e-06|    0.216226|
|        3870|  5.9571e+01|  5.9571e+01|   -9.606985|  8.4047e-06|    0.216244|
|        3880|  5.9571e+01|  5.9571e+01|   -9.613824|  8.6337e-06|    0.216262|
|        3890|  5.9571e+01|  5.9571e+01|   -9.620585|  8.6308e-06|    0.216280|
|        3900|  5.9571e+01|  5.9571e+01|   -9.627121|  8.6055e-06|    0.216298|
|        3910|  5.9571e+01|  5.9571e+01|   -9.633400|  8.5796e-06|    0.216315|
|        3920|  5.9571e+01|  5.9571e+01|   -9.639521|  8.5486e-06|    0.216333|
|        3930|  5.9571e+01|  5.9571e+01|   -9.645581|  8.5130e-06|    0.216350|
|        3940|  5.9571e+01|  5.9571e+01|   -9.651585|  8.4761e-06|    0.216367|
|        3950|  5.9571e+01|  5.9571e+01|   -9.657461|  8.4386e-06|    0.216384|
|        3960|  5.9571e+01|  5.9571e+01|   -9.663149|  8.4002e-06|    0.216401|
|        3970|  5.9571e+01|  5.9571e+01|   -9.668661|  8.3592e-06|    0.216418|
|        3980|  5.9571e+01|  5.9571e+01|   -9.674066|  8.3142e-06|    0.216434|
|        3990|  5.9571e+01|  5.9571e+01|   -9.679402|  8.2662e-06|    0.216451|
|        4000|  5.9571e+01|  5.9571e+01|   -9.684646|  8.2159e-06|    0.216467|
+-----------------------------------------------------------------------+
|        File Writing Summary       |              Filename             |
+-----------------------------------------------------------------------+
|SU2 binary restart                 |restart_flow_G7.dat                |
|Paraview                           |flow_G7.vtu                        |
|Paraview surface                   |surface_flow_G7.vtu                |
+-----------------------------------------------------------------------+
+-----------------------------------------------------------------------------+
|  Inner_Iter|     Min CFL|     Max CFL|      rms[P]|  Cauchy[CD]|          CD|
+-----------------------------------------------------------------------------+
|        4010|  5.9571e+01|  5.9571e+01|   -9.689742|  8.1635e-06|    0.216483|
|        4020|  5.9571e+01|  5.9571e+01|   -9.694677|  8.1096e-06|    0.216499|
|        4030|  5.9571e+01|  5.9571e+01|   -9.699488|  8.0543e-06|    0.216515|
|        4040|  5.9571e+01|  5.9571e+01|   -9.704225|  7.9973e-06|    0.216530|
|        4050|  5.9571e+01|  5.9571e+01|   -9.708898|  7.9385e-06|    0.216546|
|        4060|  5.9571e+01|  5.9571e+01|   -9.713480|  7.8780e-06|    0.216561|
|        4070|  5.9571e+01|  5.9571e+01|   -9.717936|  7.8159e-06|    0.216576|
|        4080|  5.9571e+01|  5.9571e+01|   -9.722259|  7.7523e-06|    0.216591|
|        4090|  5.9571e+01|  5.9571e+01|   -9.726472|  7.6871e-06|    0.216606|
|        4100|  5.9571e+01|  5.9571e+01|   -9.730599|  7.6205e-06|    0.216621|
|        4110|  5.9571e+01|  5.9571e+01|   -9.734651|  7.5525e-06|    0.216635|
|        4120|  5.9571e+01|  5.9571e+01|   -9.738619|  7.4833e-06|    0.216649|
|        4130|  5.9571e+01|  5.9571e+01|   -9.742490|  7.4129e-06|    0.216663|
|        4140|  5.9571e+01|  5.9571e+01|   -9.746274|  7.3415e-06|    0.216677|
|        4150|  5.9571e+01|  5.9571e+01|   -9.749981|  7.2691e-06|    0.216691|
|        4160|  5.9571e+01|  5.9571e+01|   -9.753624|  7.1959e-06|    0.216705|
|        4170|  5.9571e+01|  5.9571e+01|   -9.757209|  7.1219e-06|    0.216718|
|        4180|  5.9571e+01|  5.9571e+01|   -9.760737|  7.0473e-06|    0.216731|
|        4190|  5.9571e+01|  5.9571e+01|   -9.764202|  6.9720e-06|    0.216745|
|        4200|  5.9571e+01|  5.9571e+01|   -9.767600|  6.8962e-06|    0.216757|
+-----------------------------------------------------------------------+
|        File Writing Summary       |              Filename             |
+-----------------------------------------------------------------------+
|SU2 binary restart                 |restart_flow_G7.dat                |
|Paraview                           |flow_G7.vtu                        |
|Paraview surface                   |surface_flow_G7.vtu                |
+-----------------------------------------------------------------------+
+-----------------------------------------------------------------------------+
|  Inner_Iter|     Min CFL|     Max CFL|      rms[P]|  Cauchy[CD]|          CD|
+-----------------------------------------------------------------------------+
|        4210|  5.9571e+01|  5.9571e+01|   -9.770938|  6.8199e-06|    0.216770|
|        4220|  5.9571e+01|  5.9571e+01|   -9.774223|  6.7431e-06|    0.216783|
|        4230|  5.9571e+01|  5.9571e+01|   -9.777464|  6.6659e-06|    0.216795|
|        4240|  5.9571e+01|  5.9571e+01|   -9.780667|  6.5884e-06|    0.216807|
|        4250|  5.9571e+01|  5.9571e+01|   -9.783837|  6.5105e-06|    0.216819|
|        4260|  5.9571e+01|  5.9571e+01|   -9.786976|  6.4325e-06|    0.216831|
|        4270|  5.9571e+01|  5.9571e+01|   -9.790087|  6.3544e-06|    0.216843|
|        4280|  5.9571e+01|  5.9571e+01|   -9.793169|  6.2763e-06|    0.216855|
|        4290|  5.9571e+01|  5.9571e+01|   -9.796229|  6.1982e-06|    0.216866|
|        4300|  5.9571e+01|  5.9571e+01|   -9.799276|  6.1201e-06|    0.216877|
|        4310|  5.9571e+01|  5.9571e+01|   -9.802311|  6.0421e-06|    0.216888|
|        4320|  5.9571e+01|  5.9571e+01|   -9.805339|  5.9643e-06|    0.216899|
|        4330|  5.9571e+01|  5.9571e+01|   -9.808364|  5.8868e-06|    0.216910|
|        4340|  5.9571e+01|  5.9571e+01|   -9.811388|  5.8095e-06|    0.216921|
|        4350|  5.9571e+01|  5.9571e+01|   -9.814414|  5.7327e-06|    0.216931|
|        4360|  5.9571e+01|  5.9571e+01|   -9.817442|  5.6562e-06|    0.216942|
|        4370|  5.9571e+01|  5.9571e+01|   -9.820474|  5.5801e-06|    0.216952|
|        4380|  5.9571e+01|  5.9571e+01|   -9.823512|  5.5044e-06|    0.216962|
|        4390|  5.9571e+01|  5.9571e+01|   -9.826555|  5.4292e-06|    0.216972|
|        4400|  5.9571e+01|  5.9571e+01|   -9.829611|  5.3546e-06|    0.216981|
+-----------------------------------------------------------------------+
|        File Writing Summary       |              Filename             |
+-----------------------------------------------------------------------+
|SU2 binary restart                 |restart_flow_G7.dat                |
|Paraview                           |flow_G7.vtu                        |
|Paraview surface                   |surface_flow_G7.vtu                |
+-----------------------------------------------------------------------+
+-----------------------------------------------------------------------------+
|  Inner_Iter|     Min CFL|     Max CFL|      rms[P]|  Cauchy[CD]|          CD|
+-----------------------------------------------------------------------------+
|        4410|  5.9571e+01|  5.9571e+01|   -9.832685|  5.2805e-06|    0.216991|
|        4420|  5.9571e+01|  5.9571e+01|   -9.835781|  5.2070e-06|    0.217000|
|        4430|  5.9571e+01|  5.9571e+01|   -9.838897|  5.1341e-06|    0.217010|
|        4440|  5.9571e+01|  5.9571e+01|   -9.842037|  5.0619e-06|    0.217019|
|        4450|  5.9571e+01|  5.9571e+01|   -9.845206|  4.9905e-06|    0.217028|
|        4460|  5.9571e+01|  5.9571e+01|   -9.848404|  4.9198e-06|    0.217037|
|        4470|  5.9571e+01|  5.9571e+01|   -9.851633|  4.8498e-06|    0.217046|
|        4480|  5.9571e+01|  5.9571e+01|   -9.854894|  4.7807e-06|    0.217054|
|        4490|  5.9571e+01|  5.9571e+01|   -9.858186|  4.7123e-06|    0.217063|
|        4500|  5.9571e+01|  5.9571e+01|   -9.861511|  4.6448e-06|    0.217071|
|        4510|  5.9571e+01|  5.9571e+01|   -9.864869|  4.5781e-06|    0.217080|
|        4520|  5.9571e+01|  5.9571e+01|   -9.868261|  4.5122e-06|    0.217088|
|        4530|  5.9571e+01|  5.9571e+01|   -9.871691|  4.4472e-06|    0.217096|
|        4540|  5.9571e+01|  5.9571e+01|   -9.875163|  4.3831e-06|    0.217104|
|        4550|  5.9571e+01|  5.9571e+01|   -9.878677|  4.3199e-06|    0.217112|
|        4560|  5.9571e+01|  5.9571e+01|   -9.882234|  4.2575e-06|    0.217119|
|        4570|  5.9571e+01|  5.9571e+01|   -9.885833|  4.1961e-06|    0.217127|
|        4580|  5.9571e+01|  5.9571e+01|   -9.889473|  4.1356e-06|    0.217135|
|        4590|  5.9571e+01|  5.9571e+01|   -9.893156|  4.0761e-06|    0.217142|
|        4600|  5.9571e+01|  5.9571e+01|   -9.896889|  4.0174e-06|    0.217149|
+-----------------------------------------------------------------------+
|        File Writing Summary       |              Filename             |
+-----------------------------------------------------------------------+
|SU2 binary restart                 |restart_flow_G7.dat                |
|Paraview                           |flow_G7.vtu                        |
|Paraview surface                   |surface_flow_G7.vtu                |
+-----------------------------------------------------------------------+
+-----------------------------------------------------------------------------+
|  Inner_Iter|     Min CFL|     Max CFL|      rms[P]|  Cauchy[CD]|          CD|
+-----------------------------------------------------------------------------+
|        4610|  5.9571e+01|  5.9571e+01|   -9.900673|  3.9598e-06|    0.217156|
|        4620|  5.9571e+01|  5.9571e+01|   -9.904505|  3.9030e-06|    0.217164|
|        4630|  5.9571e+01|  5.9571e+01|   -9.908383|  3.8473e-06|    0.217171|
|        4640|  5.9571e+01|  5.9571e+01|   -9.912306|  3.7925e-06|    0.217177|
|        4650|  5.9571e+01|  5.9571e+01|   -9.916275|  3.7387e-06|    0.217184|
|        4660|  5.9571e+01|  5.9571e+01|   -9.920288|  3.6858e-06|    0.217191|
|        4670|  5.9571e+01|  5.9571e+01|   -9.924349|  3.6339e-06|    0.217198|
|        4680|  5.9571e+01|  5.9571e+01|   -9.928463|  3.5829e-06|    0.217204|
|        4690|  5.9571e+01|  5.9571e+01|   -9.932627|  3.5328e-06|    0.217211|
|        4700|  5.9571e+01|  5.9571e+01|   -9.936840|  3.4837e-06|    0.217217|
|        4710|  5.9571e+01|  5.9571e+01|   -9.941101|  3.4355e-06|    0.217223|
|        4720|  5.9571e+01|  5.9571e+01|   -9.945410|  3.3882e-06|    0.217230|
|        4730|  5.9571e+01|  5.9571e+01|   -9.949767|  3.3419e-06|    0.217236|
|        4740|  5.9571e+01|  5.9571e+01|   -9.954173|  3.2965e-06|    0.217242|
|        4750|  5.9571e+01|  5.9571e+01|   -9.958628|  3.2520e-06|    0.217248|
|        4760|  5.9571e+01|  5.9571e+01|   -9.963131|  3.2084e-06|    0.217254|
|        4770|  5.9571e+01|  5.9571e+01|   -9.967682|  3.1657e-06|    0.217260|
|        4780|  5.9571e+01|  5.9571e+01|   -9.972281|  3.1239e-06|    0.217266|
|        4790|  5.9571e+01|  5.9571e+01|   -9.976928|  3.0829e-06|    0.217271|
|        4800|  5.9571e+01|  5.9571e+01|   -9.981621|  3.0428e-06|    0.217277|
+-----------------------------------------------------------------------+
|        File Writing Summary       |              Filename             |
+-----------------------------------------------------------------------+
|SU2 binary restart                 |restart_flow_G7.dat                |
|Paraview                           |flow_G7.vtu                        |
|Paraview surface                   |surface_flow_G7.vtu                |
+-----------------------------------------------------------------------+
+-----------------------------------------------------------------------------+
|  Inner_Iter|     Min CFL|     Max CFL|      rms[P]|  Cauchy[CD]|          CD|
+-----------------------------------------------------------------------------+
|        4810|  5.9571e+01|  5.9571e+01|   -9.986361|  3.0035e-06|    0.217282|
|        4820|  5.9571e+01|  5.9571e+01|   -9.991147|  2.9651e-06|    0.217288|
|        4830|  5.9571e+01|  5.9571e+01|   -9.995978|  2.9275e-06|    0.217293|
|        4840|  5.9571e+01|  5.9571e+01|  -10.000853|  2.8907e-06|    0.217299|
|        4850|  5.9571e+01|  5.9571e+01|  -10.005771|  2.8547e-06|    0.217304|
|        4860|  5.9571e+01|  5.9571e+01|  -10.010734|  2.8194e-06|    0.217310|
|        4870|  5.9571e+01|  5.9571e+01|  -10.015738|  2.7850e-06|    0.217315|
|        4880|  5.9571e+01|  5.9571e+01|  -10.020785|  2.7512e-06|    0.217320|
|        4890|  5.9571e+01|  5.9571e+01|  -10.025876|  2.7182e-06|    0.217325|
|        4900|  5.9571e+01|  5.9571e+01|  -10.031009|  2.6860e-06|    0.217330|
|        4910|  5.9571e+01|  5.9571e+01|  -10.036183|  2.6544e-06|    0.217335|
|        4920|  5.9571e+01|  5.9571e+01|  -10.041394|  2.6236e-06|    0.217340|
|        4930|  5.9571e+01|  5.9571e+01|  -10.046643|  2.5934e-06|    0.217345|
|        4940|  5.9571e+01|  5.9571e+01|  -10.051928|  2.5639e-06|    0.217350|
|        4950|  5.9571e+01|  5.9571e+01|  -10.057249|  2.5350e-06|    0.217355|
|        4960|  5.9571e+01|  5.9571e+01|  -10.062604|  2.5067e-06|    0.217360|
|        4970|  5.9571e+01|  5.9571e+01|  -10.067993|  2.4791e-06|    0.217364|
|        4980|  5.9571e+01|  5.9571e+01|  -10.073416|  2.4521e-06|    0.217369|
|        4990|  5.9571e+01|  5.9571e+01|  -10.078872|  2.4256e-06|    0.217374|
|        5000|  5.9571e+01|  5.9571e+01|  -10.084360|  2.3997e-06|    0.217378|
+-----------------------------------------------------------------------+
|        File Writing Summary       |              Filename             |
+-----------------------------------------------------------------------+
|SU2 binary restart                 |restart_flow_G7.dat                |
|Paraview                           |flow_G7.vtu                        |
|Paraview surface                   |surface_flow_G7.vtu                |
+-----------------------------------------------------------------------+
+-----------------------------------------------------------------------------+
|  Inner_Iter|     Min CFL|     Max CFL|      rms[P]|  Cauchy[CD]|          CD|
+-----------------------------------------------------------------------------+
|        5010|  5.9571e+01|  5.9571e+01|  -10.089877|  2.3744e-06|    0.217383|
|        5020|  5.9571e+01|  5.9571e+01|  -10.095423|  2.3496e-06|    0.217387|
|        5030|  5.9571e+01|  5.9571e+01|  -10.100997|  2.3253e-06|    0.217392|
|        5040|  5.9571e+01|  5.9571e+01|  -10.106597|  2.3015e-06|    0.217396|
|        5050|  5.9571e+01|  5.9571e+01|  -10.112222|  2.2783e-06|    0.217401|
|        5060|  5.9571e+01|  5.9571e+01|  -10.117872|  2.2555e-06|    0.217405|
|        5070|  5.9571e+01|  5.9571e+01|  -10.123547|  2.2331e-06|    0.217409|
|        5080|  5.9571e+01|  5.9571e+01|  -10.129245|  2.2112e-06|    0.217414|
|        5090|  5.9571e+01|  5.9571e+01|  -10.134965|  2.1898e-06|    0.217418|
|        5100|  5.9571e+01|  5.9571e+01|  -10.140707|  2.1687e-06|    0.217422|
|        5110|  5.9571e+01|  5.9571e+01|  -10.146470|  2.1481e-06|    0.217426|
|        5120|  5.9571e+01|  5.9571e+01|  -10.152253|  2.1278e-06|    0.217430|
|        5130|  5.9571e+01|  5.9571e+01|  -10.158054|  2.1080e-06|    0.217435|
|        5140|  5.9571e+01|  5.9571e+01|  -10.163870|  2.0885e-06|    0.217439|
|        5150|  5.9571e+01|  5.9571e+01|  -10.169701|  2.0694e-06|    0.217443|
|        5160|  5.9571e+01|  5.9571e+01|  -10.175547|  2.0505e-06|    0.217447|
|        5170|  5.9571e+01|  5.9571e+01|  -10.181407|  2.0321e-06|    0.217451|
|        5180|  5.9571e+01|  5.9571e+01|  -10.187280|  2.0139e-06|    0.217455|
|        5190|  5.9571e+01|  5.9571e+01|  -10.193165|  1.9960e-06|    0.217458|
|        5200|  5.9571e+01|  5.9571e+01|  -10.199061|  1.9784e-06|    0.217462|
+-----------------------------------------------------------------------+
|        File Writing Summary       |              Filename             |
+-----------------------------------------------------------------------+
|SU2 binary restart                 |restart_flow_G7.dat                |
|Paraview                           |flow_G7.vtu                        |
|Paraview surface                   |surface_flow_G7.vtu                |
+-----------------------------------------------------------------------+
+-----------------------------------------------------------------------------+
|  Inner_Iter|     Min CFL|     Max CFL|      rms[P]|  Cauchy[CD]|          CD|
+-----------------------------------------------------------------------------+
|        5210|  5.9571e+01|  5.9571e+01|  -10.204965|  1.9612e-06|    0.217466|
|        5220|  5.9571e+01|  5.9571e+01|  -10.210879|  1.9441e-06|    0.217470|
|        5230|  5.9571e+01|  5.9571e+01|  -10.216805|  1.9274e-06|    0.217474|
|        5240|  5.9571e+01|  5.9571e+01|  -10.222739|  1.9109e-06|    0.217478|
|        5250|  5.9571e+01|  5.9571e+01|  -10.228678|  1.8946e-06|    0.217481|
|        5260|  5.9571e+01|  5.9571e+01|  -10.234622|  1.8786e-06|    0.217485|
|        5270|  5.9571e+01|  5.9571e+01|  -10.240569|  1.8627e-06|    0.217489|
|        5280|  5.9571e+01|  5.9571e+01|  -10.246521|  1.8471e-06|    0.217492|
|        5290|  5.9571e+01|  5.9571e+01|  -10.252475|  1.8317e-06|    0.217496|
|        5300|  5.9571e+01|  5.9571e+01|  -10.258430|  1.8165e-06|    0.217499|
|        5310|  5.9571e+01|  5.9571e+01|  -10.264388|  1.8015e-06|    0.217503|
|        5320|  5.9571e+01|  5.9571e+01|  -10.270348|  1.7866e-06|    0.217506|
|        5330|  5.9571e+01|  5.9571e+01|  -10.276306|  1.7720e-06|    0.217510|
|        5340|  5.9571e+01|  5.9571e+01|  -10.282262|  1.7575e-06|    0.217513|
|        5350|  5.9571e+01|  5.9571e+01|  -10.288215|  1.7431e-06|    0.217517|
|        5360|  5.9571e+01|  5.9571e+01|  -10.294163|  1.7289e-06|    0.217520|
|        5370|  5.9571e+01|  5.9571e+01|  -10.300105|  1.7148e-06|    0.217524|
|        5380|  5.9571e+01|  5.9571e+01|  -10.306045|  1.7009e-06|    0.217527|
|        5390|  5.9571e+01|  5.9571e+01|  -10.311982|  1.6871e-06|    0.217530|
|        5400|  5.9571e+01|  5.9571e+01|  -10.317913|  1.6734e-06|    0.217534|
+-----------------------------------------------------------------------+
|        File Writing Summary       |              Filename             |
+-----------------------------------------------------------------------+
|SU2 binary restart                 |restart_flow_G7.dat                |
|Paraview                           |flow_G7.vtu                        |
|Paraview surface                   |surface_flow_G7.vtu                |
+-----------------------------------------------------------------------+
+-----------------------------------------------------------------------------+
|  Inner_Iter|     Min CFL|     Max CFL|      rms[P]|  Cauchy[CD]|          CD|
+-----------------------------------------------------------------------------+
|        5410|  5.9571e+01|  5.9571e+01|  -10.323838|  1.6599e-06|    0.217537|
|        5420|  5.9571e+01|  5.9571e+01|  -10.329755|  1.6464e-06|    0.217540|
|        5430|  5.9571e+01|  5.9571e+01|  -10.335662|  1.6331e-06|    0.217543|
|        5440|  5.9571e+01|  5.9571e+01|  -10.341557|  1.6199e-06|    0.217547|
|        5450|  5.9571e+01|  5.9571e+01|  -10.347441|  1.6068e-06|    0.217550|
|        5460|  5.9571e+01|  5.9571e+01|  -10.353314|  1.5937e-06|    0.217553|
|        5470|  5.9571e+01|  5.9571e+01|  -10.359177|  1.5808e-06|    0.217556|
|        5480|  5.9571e+01|  5.9571e+01|  -10.365029|  1.5679e-06|    0.217559|
|        5490|  5.9571e+01|  5.9571e+01|  -10.370867|  1.5552e-06|    0.217562|
|        5500|  5.9571e+01|  5.9571e+01|  -10.376691|  1.5425e-06|    0.217565|
|        5510|  5.9571e+01|  5.9571e+01|  -10.382499|  1.5299e-06|    0.217568|
|        5520|  5.9571e+01|  5.9571e+01|  -10.388294|  1.5173e-06|    0.217571|
|        5530|  5.9571e+01|  5.9571e+01|  -10.394073|  1.5049e-06|    0.217574|
|        5540|  5.9571e+01|  5.9571e+01|  -10.399838|  1.4925e-06|    0.217577|
|        5550|  5.9571e+01|  5.9571e+01|  -10.405587|  1.4801e-06|    0.217580|
|        5560|  5.9571e+01|  5.9571e+01|  -10.411320|  1.4679e-06|    0.217583|
|        5570|  5.9571e+01|  5.9571e+01|  -10.417035|  1.4556e-06|    0.217586|
|        5580|  5.9571e+01|  5.9571e+01|  -10.422734|  1.4435e-06|    0.217588|
|        5590|  5.9571e+01|  5.9571e+01|  -10.428415|  1.4314e-06|    0.217591|
|        5600|  5.9571e+01|  5.9571e+01|  -10.434078|  1.4194e-06|    0.217594|
+-----------------------------------------------------------------------+
|        File Writing Summary       |              Filename             |
+-----------------------------------------------------------------------+
|SU2 binary restart                 |restart_flow_G7.dat                |
|Paraview                           |flow_G7.vtu                        |
|Paraview surface                   |surface_flow_G7.vtu                |
+-----------------------------------------------------------------------+
+-----------------------------------------------------------------------------+
|  Inner_Iter|     Min CFL|     Max CFL|      rms[P]|  Cauchy[CD]|          CD|
+-----------------------------------------------------------------------------+
|        5610|  5.9571e+01|  5.9571e+01|  -10.439723|  1.4074e-06|    0.217597|
|        5620|  5.9571e+01|  5.9571e+01|  -10.445345|  1.3954e-06|    0.217600|
|        5630|  5.9571e+01|  5.9571e+01|  -10.450947|  1.3836e-06|    0.217602|
|        5640|  5.9571e+01|  5.9571e+01|  -10.456532|  1.3717e-06|    0.217605|
|        5650|  5.9571e+01|  5.9571e+01|  -10.462098|  1.3599e-06|    0.217608|
|        5660|  5.9571e+01|  5.9571e+01|  -10.467643|  1.3482e-06|    0.217610|
|        5670|  5.9571e+01|  5.9571e+01|  -10.473167|  1.3365e-06|    0.217613|
|        5680|  5.9571e+01|  5.9571e+01|  -10.478668|  1.3249e-06|    0.217615|
|        5690|  5.9571e+01|  5.9571e+01|  -10.484149|  1.3133e-06|    0.217618|
|        5700|  5.9571e+01|  5.9571e+01|  -10.489611|  1.3017e-06|    0.217621|
|        5710|  5.9571e+01|  5.9571e+01|  -10.495053|  1.2902e-06|    0.217623|
|        5720|  5.9571e+01|  5.9571e+01|  -10.500473|  1.2788e-06|    0.217626|
|        5730|  5.9571e+01|  5.9571e+01|  -10.505872|  1.2674e-06|    0.217628|
|        5740|  5.9571e+01|  5.9571e+01|  -10.511250|  1.2560e-06|    0.217630|
|        5750|  5.9571e+01|  5.9571e+01|  -10.516606|  1.2447e-06|    0.217633|
|        5760|  5.9571e+01|  5.9571e+01|  -10.521942|  1.2334e-06|    0.217635|
|        5770|  5.9571e+01|  5.9571e+01|  -10.527257|  1.2222e-06|    0.217638|
|        5780|  5.9571e+01|  5.9571e+01|  -10.532552|  1.2111e-06|    0.217640|
|        5790|  5.9571e+01|  5.9571e+01|  -10.537827|  1.1999e-06|    0.217642|
|        5800|  5.9571e+01|  5.9571e+01|  -10.543078|  1.1889e-06|    0.217645|
+-----------------------------------------------------------------------+
|        File Writing Summary       |              Filename             |
+-----------------------------------------------------------------------+
|SU2 binary restart                 |restart_flow_G7.dat                |
|Paraview                           |flow_G7.vtu                        |
|Paraview surface                   |surface_flow_G7.vtu                |
+-----------------------------------------------------------------------+
+-----------------------------------------------------------------------------+
|  Inner_Iter|     Min CFL|     Max CFL|      rms[P]|  Cauchy[CD]|          CD|
+-----------------------------------------------------------------------------+
|        5810|  5.9571e+01|  5.9571e+01|  -10.548307|  1.1779e-06|    0.217647|
|        5820|  5.9571e+01|  5.9571e+01|  -10.553516|  1.1669e-06|    0.217649|
|        5830|  5.9571e+01|  5.9571e+01|  -10.558708|  1.1560e-06|    0.217651|
|        5840|  5.9571e+01|  5.9571e+01|  -10.563881|  1.1451e-06|    0.217654|
|        5850|  5.9571e+01|  5.9571e+01|  -10.569035|  1.1343e-06|    0.217656|
|        5860|  5.9571e+01|  5.9571e+01|  -10.574170|  1.1235e-06|    0.217658|
|        5870|  5.9571e+01|  5.9571e+01|  -10.579288|  1.1128e-06|    0.217660|
|        5880|  5.9571e+01|  5.9571e+01|  -10.584389|  1.1022e-06|    0.217662|
|        5890|  5.9571e+01|  5.9571e+01|  -10.589472|  1.0916e-06|    0.217664|
|        5900|  5.9571e+01|  5.9571e+01|  -10.594539|  1.0810e-06|    0.217666|
|        5910|  5.9571e+01|  5.9571e+01|  -10.599589|  1.0706e-06|    0.217668|
|        5920|  5.9571e+01|  5.9571e+01|  -10.604622|  1.0601e-06|    0.217671|
|        5930|  5.9571e+01|  5.9571e+01|  -10.609639|  1.0498e-06|    0.217673|
|        5940|  5.9571e+01|  5.9571e+01|  -10.614639|  1.0395e-06|    0.217675|
|        5950|  5.9571e+01|  5.9571e+01|  -10.619623|  1.0292e-06|    0.217677|
|        5960|  5.9571e+01|  5.9571e+01|  -10.624591|  1.0191e-06|    0.217678|
|        5970|  5.9571e+01|  5.9571e+01|  -10.629543|  1.0089e-06|    0.217680|
|        5979|  5.9571e+01|  5.9571e+01|  -10.633987|  9.9988e-07|    0.217682|

----------------------------- Solver Exit -------------------------------
All convergence criteria satisfied.
+-----------------------------------------------------------------------+
|      Convergence Field     |     Value    |   Criterion  |  Converged |
+-----------------------------------------------------------------------+
|                      rms[P]|       -10.634|          < -9|         Yes|
|                  Cauchy[CD]|   9.99885e-07|       < 1e-06|         Yes|
+-----------------------------------------------------------------------+
-------------------------------------------------------------------------
+-----------------------------------------------------------------------+
|        File Writing Summary       |              Filename             |
+-----------------------------------------------------------------------+
|SU2 binary restart                 |restart_flow_G7.dat                |
|Paraview                           |flow_G7.vtu                        |
|Paraview surface                   |surface_flow_G7.vtu                |
+-----------------------------------------------------------------------+

------------------------- Solver Postprocessing -------------------------
Deleted CNumerics container.
Deleted CIntegration container.
Deleted CSolver container.
Deleted CIteration container.
Deleted CInterface container.
Deleted CGeometry container.
Deleted CFreeFormDefBox class.
Deleted CSurfaceMovement class.
Deleted CVolumetricMovement class.
Deleted CConfig container.
Deleted nInst container.
Deleted COutput class.
-------------------------------------------------------------------------

------------------------- Exit Success (SU2_CFD) ------------------------

