
-------------------------------------------------------------------------
|    ___ _   _ ___                                                      |
|   / __| | | |_  )   Release 7.4.0 "Blackbird"                         |
|   \__ \ |_| |/ /                                                      |
|   |___/\___//___|   Suite (Computational Fluid Dynamics Code)         |
|                                                                       |
-------------------------------------------------------------------------
| SU2 Project Website: https://su2code.github.io                        |
|                                                                       |
| The SU2 Project is maintained by the SU2 Foundation                   |
| (http://su2foundation.org)                                            |
-------------------------------------------------------------------------
| Copyright 2012-2022, SU2 Contributors                                 |
|                                                                       |
| SU2 is free software; you can redistribute it and/or                  |
| modify it under the terms of the GNU Lesser General Public            |
| License as published by the Free Software Foundation; either          |
| version 2.1 of the License, or (at your option) any later version.    |
|                                                                       |
| SU2 is distributed in the hope that it will be useful,                |
| but WITHOUT ANY WARRANTY; without even the implied warranty of        |
| MERCHANTABILITY or FITNESS FOR A PARTICULAR PURPOSE. See the GNU      |
| Lesser General Public License for more details.                       |
|                                                                       |
| You should have received a copy of the GNU Lesser General Public      |
| License along with SU2. If not, see <http://www.gnu.org/licenses/>.   |
-------------------------------------------------------------------------

Parsing config file for zone 0

----------------- Physical Case Definition ( Zone 0 ) -------------------
Incompressible RANS equations.
Turbulence model: Spalart-Allmaras-noft2
Hybrid RANS/LES: No Hybrid RANS/LES
No restart solution, use the values at infinity (freestream).
Non-Dimensional simulation using intialization values.
The reference area is 1 m^2.
The semi-span will be computed using the max y(3D) value.
The reference length is 1.00898 m.
Reference origin for moment evaluation is (-0.756, 0, 0).
Surface(s) where the force coefficients are evaluated: AIRFOIL.

Surface(s) plotted in the output file: AIRFOIL.
Input mesh file name: ../meshG6/meshG6.su2

--------------- Space Numerical Integration ( Zone 0 ) ------------------
Flux difference splitting (FDS) upwind scheme for the flow inviscid terms.
First order integration in space.
Average of gradients with correction (viscous flow terms).
Average of gradients with correction (viscous turbulence terms).
Gradient for upwind reconstruction: unweighted Least-Squares.
Gradient for viscous and source terms: Green-Gauss.

--------------- Time Numerical Integration  ( Zone 0 ) ------------------
Local time stepping (steady state simulation).
Euler implicit method for the flow equations.
FGMRES is used for solving the linear system.
Using a ILU(0) preconditioning.
Convergence criteria of the linear solver: 1e-06.
Max number of linear iterations: 10.
CFL adaptation. Factor down: 0.1, factor up: 1.2,
                lower limit: 1, upper limit: 1000,
                acceptable linear residual: 0.001.
Courant-Friedrichs-Lewy number:        2
Euler implicit time integration for the turbulence model.

------------------ Convergence Criteria  ( Zone 0 ) ---------------------
Maximum number of solver subiterations: 9999.
Begin convergence monitoring at iteration 10.
Residual minimum value: 1e-9.
Cauchy series min. value: 1e-06.
Number of Cauchy elements: 250.
Begin windowed time average at iteration 0.

-------------------- Output Information ( Zone 0 ) ----------------------
File writing frequency: 
+------------------------------------+
|                     File| Frequency|
+------------------------------------+
|                  RESTART|       200|
|                 PARAVIEW|       200|
|         SURFACE_PARAVIEW|       200|
+------------------------------------+
Writing the convergence history file every 1 inner iterations.
Writing the screen convergence history every 10 inner iterations.
The tabular file format is CSV (.csv).
Convergence history file name: history_G6.
Forces breakdown file name: forces_breakdown.dat.
Surface file name: surface_flow_G6.
Volume file name: flow_G6.
Restart file name: restart_flow_G6.dat.

------------- Config File Boundary Information ( Zone 0 ) ---------------
+-----------------------------------------------------------------------+
|                        Marker Type|                        Marker Name|
+-----------------------------------------------------------------------+
|                          Far-field|                           FARFIELD|
+-----------------------------------------------------------------------+
|                     Heat flux wall|                            AIRFOIL|
+-----------------------------------------------------------------------+

-------------------- Output Preprocessing ( Zone 0 ) --------------------

WARNING: SURFACE_PRESSURE_DROP can only be computed for at least 2 surfaces (outlet, inlet, ...)

Screen output fields: INNER_ITER, MIN_CFL, MAX_CFL, RMS_PRESSURE, CAUCHY_DRAG, DRAG
History output group(s): INNER_ITER, MIN_CFL, MAX_CFL, RMS_RES, LIFT, DRAG, MOMENT_Z, CAUCHY
Convergence field(s): RMS_PRESSURE, DRAG
Warning: No (valid) fields chosen for time convergence monitoring. Time convergence monitoring inactive.
Volume output fields: COORDINATES, SOLUTION, PRIMITIVE, RESIDUAL, MESH_QUALITY

------------------- Geometry Preprocessing ( Zone 0 ) -------------------
Two dimensional problem.
287404 grid points before partitioning.
286116 volume elements before partitioning.
2 surface markers.
798 boundary elements in index 0 (Marker = AIRFOIL).
1778 boundary elements in index 1 (Marker = FARFIELD).
Executing the partitioning functions.
Building the graph adjacency structure.
Calling ParMETIS... graph partitioning complete (3610 edge cuts).
Distributing ParMETIS coloring.
Rebalancing vertices.
Rebalancing volume element connectivity.
Rebalancing markers and surface elements.
294644 vertices including ghost points. 
289724 interior elements including halo cells. 
289724 quadrilaterals.
Establishing MPI communication patterns.
Setting point connectivity.
Renumbering points (Reverse Cuthill McKee Ordering).
Recomputing point connectivity.
Setting element connectivity.
Checking the numerical grid orientation.
All volume elements are correctly orientend.
There has been a re-orientation of 1295 LINE surface elements.
Identifying edges and vertices.
Setting the control volume structure.
Area of the computational grid: 3236.39.
Searching for the closest normal neighbors to the surfaces.
Storing a mapping from global to local point index.
Compute the surface curvature.
Max K: 6629.39. Mean K: 3.88441. Standard deviation K: 130.885.
Checking for periodicity.
Computing mesh quality statistics for the dual control volumes.
+--------------------------------------------------------------+
|           Mesh Quality Metric|        Minimum|        Maximum|
+--------------------------------------------------------------+
|    Orthogonality Angle (deg.)|        72.4128|             90|
|     CV Face Area Aspect Ratio|        1.00005|         125630|
|           CV Sub-Volume Ratio|              1|        15.2167|
+--------------------------------------------------------------+
Finding max control volume width.
Communicating number of neighbors.
Wetted area = 2.05977 m.
Area projection in the x-plane = 0.121115 m, y-plane = 1.00885 m.
Max. coordinate in the x-direction = 1.00898 m, y-direction = 0.0759841 m.
Min. coordinate in the x-direction = 1.77353e-06 m, y-direction = -0.0451351 m.
Computing wall distances.

-------------------- Solver Preprocessing ( Zone 0 ) --------------------
Incompressible flow: rho_ref, vel_ref, and temp_ref
are based on the initial values, p_ref = rho_ref*vel_ref^2.
Force coefficients computed using initial values.
The reference area for force coeffs. is 1 m^2.
The reference length for force coeffs. is 1.00898 m.
The pressure is decomposed into thermodynamic and dynamic components.
The initial value of the dynamic pressure is 0.
Mach number: 0.0276747, computed using the Bulk modulus.
For external flows, the initial state is imposed at the far-field.
Angle of attack (deg): 14, computed using the initial velocity.
Side slip angle (deg): 0, computed using the initial velocity.
Reynolds number per meter: 594999, computed using initial values.
Reynolds number is a byproduct of inputs only (not used internally).
SI units only. The grid should be dimensional (meters).
No energy equation.

-- Models:
+------------------------------------------------------------------------------+
|          Viscosity Model|        Conductivity Model|              Fluid Model|
+------------------------------------------------------------------------------+
|       CONSTANT_VISCOSITY|          CONSTANT_PRANDTL|         CONSTANT_DENSITY|
+------------------------------------------------------------------------------+
-- Fluid properties:
+------------------------------------------------------------------------------+
|                  Name|    Dim. value|    Ref. value|      Unit|Non-dim. value|
+------------------------------------------------------------------------------+
|             Viscosity|      1.92e-05|        11.424|   N.s/m^2|   1.68067e-06|
+------------------------------------------------------------------------------+
|        Prandtl (Lam.)|             -|             -|         -|          0.72|
|       Prandtl (Turb.)|             -|             -|         -|           0.9|
+------------------------------------------------------------------------------+
|          Bulk Modulus|        142000|             1|        Pa|        142000|
+------------------------------------------------------------------------------+
-- Initial and free-stream conditions:
+------------------------------------------------------------------------------+
|                  Name|    Dim. value|    Ref. value|      Unit|Non-dim. value|
+------------------------------------------------------------------------------+
|      Dynamic Pressure|             0|       108.756|        Pa|             0|
|        Total Pressure|       54.3781|       108.756|        Pa|           0.5|
|               Density|           1.2|           1.2|    kg/m^3|             1|
|            Velocity-X|        9.2372|       9.51999|       m/s|      0.970296|
|            Velocity-Y|        2.3031|       9.51999|       m/s|      0.241923|
|    Velocity Magnitude|       9.51999|       9.51999|       m/s|             1|
+------------------------------------------------------------------------------+
|             Viscosity|      1.92e-05|        11.424|   N.s/m^2|   1.68067e-06|
|          Conductivity|             -|       3.59312|   W/m^2.K|             -|
|     Turb. Kin. Energy|       1.35945|       90.6301|   m^2/s^2|         0.015|
|     Spec. Dissipation|       8496.58|       9.51999|       1/s|       892.499|
+------------------------------------------------------------------------------+
|           Mach Number|             -|             -|         -|     0.0276747|
|       Reynolds Number|             -|             -|         -|        594999|
+------------------------------------------------------------------------------+
Initialize Jacobian structure (Navier-Stokes). MG level: 0.
Initialize Jacobian structure (SA model).

------------------- Numerics Preprocessing ( Zone 0 ) -------------------

----------------- Integration Preprocessing ( Zone 0 ) ------------------

------------------- Iteration Preprocessing ( Zone 0 ) ------------------
Euler/Navier-Stokes/RANS fluid iteration.

------------------------------ Begin Solver -----------------------------

Simulation Run using the Single-zone Driver
+-----------------------------------------------------------------------------+
|  Inner_Iter|     Min CFL|     Max CFL|      rms[P]|  Cauchy[CD]|          CD|
+-----------------------------------------------------------------------------+
|           0|  2.4000e+00|  2.4000e+00|   -4.356868|  1.0000e+00|    0.943470|
|          10|  1.4860e+01|  1.4860e+01|   -5.088461|  7.5508e-04|    0.948892|
|          20|  6.3896e+00|  6.3896e+00|   -5.250590|  9.7614e-04|    0.898113|
|          30|  3.9563e+01|  3.9563e+01|   -5.174965|  1.2000e-03|    0.849436|
|          40|  2.0413e+01|  2.0413e+01|   -5.124628|  1.5340e-03|    0.781805|
|          50|  8.7774e+00|  8.7774e+00|   -5.093325|  2.3897e-03|    0.633317|
|          60|  4.5290e+00|  4.5290e+00|   -5.067801|  3.3928e-03|    0.494872|
|          70|  2.8042e+01|  2.8042e+01|   -5.057366|  4.0264e-03|    0.423061|
|          80|  1.4469e+01|  1.4469e+01|   -5.112039|  5.2830e-03|    0.311333|
|          90|  7.4657e+00|  7.4657e+00|   -5.173910|  7.1096e-03|    0.199891|
|         100|  4.6226e+01|  4.6226e+01|   -5.181791|  8.3824e-03|    0.146258|
|         110|  2.3852e+01|  2.3852e+01|   -5.194386|  9.2790e-03|    0.117409|
|         120|  1.2307e+01|  1.2307e+01|   -5.215107|  1.0244e-02|    0.092207|
|         130|  6.3501e+00|  6.3501e+00|   -5.226796|  1.1934e-02|    0.049953|
|         140|  3.9318e+01|  3.9318e+01|   -5.213224|  1.3239e-02|    0.017333|
|         150|  2.0287e+01|  2.0287e+01|   -5.221509|  1.4714e-02|   -0.019546|
|         160|  5.0481e+01|  5.0481e+01|   -5.264543|  1.5968e-02|   -0.014813|
|         170|  5.0481e+01|  5.0481e+01|   -5.301129|  2.1918e-02|    0.145045|
|         180|  5.0481e+01|  5.0481e+01|   -5.306629|  2.4511e-02|    0.285027|
|         190|  7.2693e+00|  7.2693e+00|   -5.329942|  2.5224e-02|    0.249016|
|         200|  4.5010e+01|  4.5010e+01|   -5.343432|  2.5999e-02|    0.205705|
+-----------------------------------------------------------------------+
|        File Writing Summary       |              Filename             |
+-----------------------------------------------------------------------+
|SU2 binary restart                 |restart_flow_G6.dat                |
|Paraview                           |flow_G6.vtu                        |
|Paraview surface                   |surface_flow_G6.vtu                |
+-----------------------------------------------------------------------+
+-----------------------------------------------------------------------------+
|  Inner_Iter|     Min CFL|     Max CFL|      rms[P]|  Cauchy[CD]|          CD|
+-----------------------------------------------------------------------------+
|         210|  7.7776e+00|  7.7776e+00|   -5.435439|  2.8105e-02|    0.123343|
|         220|  4.8157e+01|  4.8157e+01|   -5.441372|  2.8307e-02|    0.117897|
|         230|  2.4848e+01|  2.4848e+01|   -5.432863|  2.8569e-02|    0.125929|
|         240|  1.2821e+01|  1.2821e+01|   -5.412369|  2.9101e-02|    0.144024|
|         250|  5.5128e+01|  5.5128e+01|   -5.407226|  2.9425e-02|    0.156248|
|         260|  2.3704e+01|  2.3704e+01|   -5.447718|  2.8707e-02|    0.156198|
|         270|  1.2231e+01|  1.2231e+01|   -5.510668|  2.8548e-02|    0.153796|
|         280|  6.3108e+00|  6.3108e+00|   -5.548986|  2.8407e-02|    0.156802|
|         290|  3.9075e+01|  3.9075e+01|   -5.547828|  2.8169e-02|    0.160610|
|         300|  5.6268e+01|  5.6268e+01|   -5.531886|  2.7494e-02|    0.163352|
|         310|  9.7231e+00|  9.7231e+00|   -5.601895|  2.6998e-02|    0.144038|
|         320|  6.0203e+01|  6.0203e+01|   -5.653217|  2.6666e-02|    0.133628|
|         330|  3.1063e+01|  3.1063e+01|   -5.723401|  2.5564e-02|    0.128578|
|         340|  1.3357e+01|  1.3357e+01|   -5.741811|  2.3825e-02|    0.130711|
|         350|  6.8917e+00|  6.8917e+00|   -5.720434|  2.2791e-02|    0.138800|
|         360|  4.2672e+01|  4.2672e+01|   -5.724838|  2.2026e-02|    0.143445|
|         370|  6.1447e+01|  6.1447e+01|   -5.885086|  2.1325e-02|    0.153266|
|         380|  6.1447e+01|  6.1447e+01|   -6.073965|  1.9862e-02|    0.145156|
|         390|  6.1447e+01|  6.1447e+01|   -6.074127|  1.9159e-02|    0.125022|
|         400|  2.2018e+01|  2.2018e+01|   -6.193119|  1.7916e-02|    0.118016|
+-----------------------------------------------------------------------+
|        File Writing Summary       |              Filename             |
+-----------------------------------------------------------------------+
|SU2 binary restart                 |restart_flow_G6.dat                |
|Paraview                           |flow_G6.vtu                        |
|Paraview surface                   |surface_flow_G6.vtu                |
+-----------------------------------------------------------------------+
+-----------------------------------------------------------------------------+
|  Inner_Iter|     Min CFL|     Max CFL|      rms[P]|  Cauchy[CD]|          CD|
+-----------------------------------------------------------------------------+
|         410|  6.5745e+01|  6.5745e+01|   -6.290442|  1.6763e-02|    0.117676|
|         420|  6.5745e+01|  6.5745e+01|   -6.179811|  1.1193e-02|    0.129472|
|         430|  2.3557e+01|  2.3557e+01|   -6.210046|  8.7523e-03|    0.134508|
|         440|  1.2155e+01|  1.2155e+01|   -6.350830|  8.1349e-03|    0.137778|
|         450|  6.2718e+01|  6.2718e+01|   -6.525263|  7.3908e-03|    0.137323|
|         460|  6.2718e+01|  6.2718e+01|   -6.468311|  5.5685e-03|    0.127961|
|         470|  6.2718e+01|  6.2718e+01|   -6.504110|  5.7134e-03|    0.117384|
|         480|  6.2718e+01|  6.2718e+01|   -6.609636|  5.5529e-03|    0.116377|
|         490|  9.0314e+00|  9.0314e+00|   -6.565972|  5.2190e-03|    0.122296|
|         500|  5.5920e+01|  5.5920e+01|   -6.558856|  4.9627e-03|    0.124400|
|         510|  2.8853e+01|  2.8853e+01|   -6.552438|  4.9626e-03|    0.125543|
|         520|  1.4888e+01|  1.4888e+01|   -6.549899|  4.9194e-03|    0.125242|
|         530|  6.4015e+01|  6.4015e+01|   -6.564052|  4.9157e-03|    0.122785|
|         540|  9.2181e+00|  9.2181e+00|   -6.602906|  4.9929e-03|    0.117599|
|         550|  5.7076e+01|  5.7076e+01|   -6.594649|  4.8685e-03|    0.115946|
|         560|  2.9450e+01|  2.9450e+01|   -6.581996|  4.3994e-03|    0.114847|
|         570|  1.5196e+01|  1.5196e+01|   -6.599515|  4.1167e-03|    0.114309|
|         580|  6.5338e+01|  6.5338e+01|   -6.671942|  3.9818e-03|    0.114875|
|         590|  6.5338e+01|  6.5338e+01|   -6.951298|  3.9478e-03|    0.116406|
|         600|  7.8406e+01|  7.8406e+01|   -7.072686|  3.7556e-03|    0.115120|
+-----------------------------------------------------------------------+
|        File Writing Summary       |              Filename             |
+-----------------------------------------------------------------------+
|SU2 binary restart                 |restart_flow_G6.dat                |
|Paraview                           |flow_G6.vtu                        |
|Paraview surface                   |surface_flow_G6.vtu                |
+-----------------------------------------------------------------------+
+-----------------------------------------------------------------------------+
|  Inner_Iter|     Min CFL|     Max CFL|      rms[P]|  Cauchy[CD]|          CD|
+-----------------------------------------------------------------------------+
|         610|  4.0456e+01|  4.0456e+01|   -7.084782|  3.6663e-03|    0.113915|
|         620|  2.0874e+01|  2.0874e+01|   -7.036399|  3.4576e-03|    0.112353|
|         630|  1.0771e+01|  1.0771e+01|   -6.944469|  3.2876e-03|    0.110751|
|         640|  6.6689e+01|  6.6689e+01|   -6.906789|  2.7105e-03|    0.110071|
|         650|  3.4410e+01|  3.4410e+01|   -6.897672|  2.4839e-03|    0.109962|
|         660|  1.7755e+01|  1.7755e+01|   -6.919261|  2.3983e-03|    0.110390|
|         670|  9.1611e+00|  9.1611e+00|   -6.955611|  2.0511e-03|    0.111307|
|         680|  5.6723e+01|  5.6723e+01|   -6.973658|  1.9195e-03|    0.111879|
|         690|  2.9268e+01|  2.9268e+01|   -7.007513|  1.8402e-03|    0.112345|
|         700|  7.2828e+01|  7.2828e+01|   -7.059301|  1.8310e-03|    0.111883|
|         710|  2.6095e+01|  2.6095e+01|   -7.058772|  1.5879e-03|    0.110759|
|         720|  1.3465e+01|  1.3465e+01|   -7.034120|  1.2836e-03|    0.109593|
|         730|  8.3370e+01|  8.3370e+01|   -7.022963|  1.2117e-03|    0.108777|
|         740|  4.3017e+01|  4.3017e+01|   -7.026550|  1.0237e-03|    0.108509|
|         750|  2.2196e+01|  2.2196e+01|   -7.037353|  9.6303e-04|    0.108685|
|         760|  7.9532e+01|  7.9532e+01|   -7.043644|  9.6033e-04|    0.109609|
|         770|  7.9532e+01|  7.9532e+01|   -7.071914|  9.7897e-04|    0.110643|
|         780|  1.9790e+01|  1.9790e+01|   -7.100820|  9.0992e-04|    0.110381|
|         790|  1.0211e+01|  1.0211e+01|   -7.108492|  7.5744e-04|    0.109816|
|         800|  6.3225e+01|  6.3225e+01|   -7.122406|  7.1452e-04|    0.109440|
+-----------------------------------------------------------------------+
|        File Writing Summary       |              Filename             |
+-----------------------------------------------------------------------+
|SU2 binary restart                 |restart_flow_G6.dat                |
|Paraview                           |flow_G6.vtu                        |
|Paraview surface                   |surface_flow_G6.vtu                |
+-----------------------------------------------------------------------+
+-----------------------------------------------------------------------------+
|  Inner_Iter|     Min CFL|     Max CFL|      rms[P]|  Cauchy[CD]|          CD|
+-----------------------------------------------------------------------------+
|         810|  3.2623e+01|  3.2623e+01|   -7.132088|  6.9001e-04|    0.109068|
|         820|  8.1176e+01|  8.1176e+01|   -7.123199|  6.7847e-04|    0.108995|
|         830|  8.1176e+01|  8.1176e+01|   -7.122350|  6.8001e-04|    0.109579|
|         840|  3.4904e+01|  3.4904e+01|   -7.137920|  6.3458e-04|    0.109785|
|         850|  8.6853e+01|  8.6853e+01|   -7.150924|  5.9309e-04|    0.109742|
|         860|  8.6853e+01|  8.6853e+01|   -7.187091|  5.6706e-04|    0.109302|
|         870|  8.6853e+01|  8.6853e+01|   -7.219670|  5.2024e-04|    0.109070|
|         880|  8.6853e+01|  8.6853e+01|   -7.282525|  4.6362e-04|    0.109046|
|         890|  8.6853e+01|  8.6853e+01|   -7.391867|  4.4538e-04|    0.108872|
|         900|  4.4814e+01|  4.4814e+01|   -7.443915|  4.4342e-04|    0.108781|
|         910|  2.3123e+01|  2.3123e+01|   -7.499501|  4.3405e-04|    0.108612|
|         920|  8.2854e+01|  8.2854e+01|   -7.543187|  4.0923e-04|    0.108388|
|         930|  8.2854e+01|  8.2854e+01|   -7.564307|  3.9963e-04|    0.108094|
|         940|  8.2854e+01|  8.2854e+01|   -7.519546|  3.9380e-04|    0.107803|
|         950|  8.2854e+01|  8.2854e+01|   -7.468986|  3.8482e-04|    0.107475|
|         960|  8.2854e+01|  8.2854e+01|   -7.446175|  3.5667e-04|    0.107146|
|         970|  8.2854e+01|  8.2854e+01|   -7.451692|  3.2604e-04|    0.106832|
|         980|  8.2854e+01|  8.2854e+01|   -7.472677|  3.0776e-04|    0.106522|
|         990|  8.2854e+01|  8.2854e+01|   -7.500750|  3.0923e-04|    0.106220|
|        1000|  8.2854e+01|  8.2854e+01|   -7.535472|  3.1191e-04|    0.105951|
+-----------------------------------------------------------------------+
|        File Writing Summary       |              Filename             |
+-----------------------------------------------------------------------+
|SU2 binary restart                 |restart_flow_G6.dat                |
|Paraview                           |flow_G6.vtu                        |
|Paraview surface                   |surface_flow_G6.vtu                |
+-----------------------------------------------------------------------+
+-----------------------------------------------------------------------------+
|  Inner_Iter|     Min CFL|     Max CFL|      rms[P]|  Cauchy[CD]|          CD|
+-----------------------------------------------------------------------------+
|        1010|  8.2854e+01|  8.2854e+01|   -7.577663|  2.8695e-04|    0.105715|
|        1020|  8.2854e+01|  8.2854e+01|   -7.625215|  2.5761e-04|    0.105499|
|        1030|  3.5626e+01|  3.5626e+01|   -7.652408|  2.5001e-04|    0.105427|
|        1040|  1.8382e+01|  1.8382e+01|   -7.676470|  2.3310e-04|    0.105331|
|        1050|  7.9040e+01|  7.9040e+01|   -7.701127|  2.2340e-04|    0.105225|
|        1060|  7.9040e+00|  7.9040e+00|   -7.762528|  2.1579e-04|    0.105067|
|        1070|  4.8939e+01|  4.8939e+01|   -7.788464|  2.0963e-04|    0.105038|
|        1080|  2.5252e+01|  2.5252e+01|   -7.820780|  1.9050e-04|    0.104979|
|        1090|  7.5401e+01|  7.5401e+01|   -7.864079|  1.8643e-04|    0.104889|
|        1100|  7.5401e+01|  7.5401e+01|   -7.929024|  1.8509e-04|    0.104780|
|        1110|  7.5401e+01|  7.5401e+01|   -7.959723|  1.7278e-04|    0.104682|
|        1120|  7.5401e+01|  7.5401e+01|   -7.944771|  1.6757e-04|    0.104595|
|        1130|  7.5401e+01|  7.5401e+01|   -7.905356|  1.6966e-04|    0.104518|
|        1140|  7.5401e+01|  7.5401e+01|   -7.867790|  1.6621e-04|    0.104441|
|        1150|  7.5401e+01|  7.5401e+01|   -7.846855|  1.6556e-04|    0.104371|
|        1160|  7.5401e+01|  7.5401e+01|   -7.845152|  1.6186e-04|    0.104306|
|        1170|  1.3029e+01|  1.3029e+01|   -7.861841|  1.5537e-04|    0.104259|
|        1180|  8.0674e+01|  8.0674e+01|   -7.872099|  1.4534e-04|    0.104237|
|        1190|  4.1626e+01|  4.1626e+01|   -7.887192|  1.3547e-04|    0.104213|
|        1200|  7.1930e+01|  7.1930e+01|   -7.919222|  1.2557e-04|    0.104154|
+-----------------------------------------------------------------------+
|        File Writing Summary       |              Filename             |
+-----------------------------------------------------------------------+
|SU2 binary restart                 |restart_flow_G6.dat                |
|Paraview                           |flow_G6.vtu                        |
|Paraview surface                   |surface_flow_G6.vtu                |
+-----------------------------------------------------------------------+
+-----------------------------------------------------------------------------+
|  Inner_Iter|     Min CFL|     Max CFL|      rms[P]|  Cauchy[CD]|          CD|
+-----------------------------------------------------------------------------+
|        1210|  8.6316e+00|  8.6316e+00|   -7.972544|  1.1526e-04|    0.104103|
|        1220|  5.3444e+01|  5.3444e+01|   -7.992320|  1.0401e-04|    0.104090|
|        1230|  2.7576e+01|  2.7576e+01|   -8.018407|  9.3326e-05|    0.104066|
|        1240|  6.8618e+01|  6.8618e+01|   -8.056683|  8.3688e-05|    0.104021|
|        1250|  1.1857e+01|  1.1857e+01|   -8.104908|  7.4944e-05|    0.103984|
|        1260|  7.3417e+01|  7.3417e+01|   -8.124079|  6.6726e-05|    0.103967|
|        1270|  3.7881e+01|  3.7881e+01|   -8.143555|  5.9254e-05|    0.103948|
|        1280|  6.5459e+01|  6.5459e+01|   -8.174831|  5.8352e-05|    0.103900|
|        1290|  6.5459e+01|  6.5459e+01|   -8.204697|  5.6367e-05|    0.103857|
|        1300|  1.3574e+01|  1.3574e+01|   -8.223286|  5.3342e-05|    0.103831|
|        1310|  7.0037e+00|  7.0037e+00|   -8.229812|  4.8043e-05|    0.103813|
|        1320|  4.3365e+01|  4.3365e+01|   -8.236963|  4.7398e-05|    0.103801|
|        1330|  6.2446e+01|  6.2446e+01|   -8.242812|  4.6641e-05|    0.103762|
|        1340|  6.2446e+01|  6.2446e+01|   -8.248143|  4.4460e-05|    0.103729|
|        1350|  6.2446e+01|  6.2446e+01|   -8.252152|  4.1492e-05|    0.103699|
|        1360|  6.2446e+01|  6.2446e+01|   -8.255323|  3.8729e-05|    0.103673|
|        1370|  6.2446e+01|  6.2446e+01|   -8.256528|  3.6263e-05|    0.103652|
|        1380|  6.2446e+01|  6.2446e+01|   -8.258543|  3.4132e-05|    0.103630|
|        1390|  7.4935e+00|  7.4935e+00|   -8.262543|  3.1836e-05|    0.103613|
|        1400|  4.6398e+01|  4.6398e+01|   -8.268637|  2.9247e-05|    0.103610|
+-----------------------------------------------------------------------+
|        File Writing Summary       |              Filename             |
+-----------------------------------------------------------------------+
|SU2 binary restart                 |restart_flow_G6.dat                |
|Paraview                           |flow_G6.vtu                        |
|Paraview surface                   |surface_flow_G6.vtu                |
+-----------------------------------------------------------------------+
+-----------------------------------------------------------------------------+
|  Inner_Iter|     Min CFL|     Max CFL|      rms[P]|  Cauchy[CD]|          CD|
+-----------------------------------------------------------------------------+
|        1410|  2.3940e+01|  2.3940e+01|   -8.271475|  2.6986e-05|    0.103604|
|        1420|  5.9571e+01|  5.9571e+01|   -8.274648|  2.5658e-05|    0.103593|
|        1430|  5.9571e+01|  5.9571e+01|   -8.289974|  2.5202e-05|    0.103583|
|        1440|  5.9571e+01|  5.9571e+01|   -8.309142|  2.4563e-05|    0.103575|
|        1450|  3.0737e+01|  3.0737e+01|   -8.321767|  2.2314e-05|    0.103574|
|        1460|  1.5860e+01|  1.5860e+01|   -8.332172|  2.0430e-05|    0.103573|
|        1470|  5.6828e+01|  5.6828e+01|   -8.342621|  2.0089e-05|    0.103569|
|        1480|  5.6828e+01|  5.6828e+01|   -8.366355|  1.9284e-05|    0.103566|
|        1490|  5.6828e+00|  5.6828e+00|   -8.389138|  1.7624e-05|    0.103565|
|        1500|  3.5187e+01|  3.5187e+01|   -8.399871|  1.6232e-05|    0.103565|
|        1510|  1.8155e+01|  1.8155e+01|   -8.408058|  1.5596e-05|    0.103565|
|        1520|  5.4212e+01|  5.4212e+01|   -8.414896|  1.4912e-05|    0.103564|
|        1530|  5.4212e+01|  5.4212e+01|   -8.427057|  1.3167e-05|    0.103566|
|        1540|  5.4212e+01|  5.4212e+01|   -8.435046|  1.1625e-05|    0.103569|
|        1550|  5.4212e+01|  5.4212e+01|   -8.440563|  1.0740e-05|    0.103572|
|        1560|  5.4212e+01|  5.4212e+01|   -8.446888|  1.0184e-05|    0.103576|
|        1570|  5.4212e+01|  5.4212e+01|   -8.454391|  9.9380e-06|    0.103582|
|        1580|  5.4212e+01|  5.4212e+01|   -8.463148|  8.6598e-06|    0.103588|
|        1590|  7.8065e+00|  7.8065e+00|   -8.474657|  7.5836e-06|    0.103592|
|        1600|  4.8336e+01|  4.8336e+01|   -8.480374|  6.5297e-06|    0.103595|
+-----------------------------------------------------------------------+
|        File Writing Summary       |              Filename             |
+-----------------------------------------------------------------------+
|SU2 binary restart                 |restart_flow_G6.dat                |
|Paraview                           |flow_G6.vtu                        |
|Paraview surface                   |surface_flow_G6.vtu                |
+-----------------------------------------------------------------------+
+-----------------------------------------------------------------------------+
|  Inner_Iter|     Min CFL|     Max CFL|      rms[P]|  Cauchy[CD]|          CD|
+-----------------------------------------------------------------------------+
|        1610|  2.4940e+01|  2.4940e+01|   -8.485537|  5.6254e-06|    0.103598|
|        1620|  5.1716e+01|  5.1716e+01|   -8.491396|  4.9662e-06|    0.103602|
|        1630|  5.1716e+01|  5.1716e+01|   -8.504034|  4.3943e-06|    0.103609|
|        1640|  5.1716e+01|  5.1716e+01|   -8.516177|  4.0052e-06|    0.103616|
|        1650|  5.1716e+01|  5.1716e+01|   -8.528703|  4.2093e-06|    0.103624|
|        1660|  5.1716e+01|  5.1716e+01|   -8.540725|  4.3072e-06|    0.103632|
|        1670|  5.1716e+01|  5.1716e+01|   -8.551142|  4.1952e-06|    0.103641|
|        1680|  1.2869e+01|  1.2869e+01|   -8.560404|  3.9957e-06|    0.103646|
|        1690|  6.6399e+00|  6.6399e+00|   -8.563300|  3.9271e-06|    0.103651|
|        1700|  4.1113e+01|  4.1113e+01|   -8.569527|  3.9940e-06|    0.103654|
|        1710|  4.9335e+01|  4.9335e+01|   -8.574158|  4.1914e-06|    0.103661|
|        1720|  4.9335e+01|  4.9335e+01|   -8.583334|  4.3977e-06|    0.103670|
|        1730|  4.9335e+01|  4.9335e+01|   -8.591804|  4.6196e-06|    0.103679|
|        1740|  4.9335e+01|  4.9335e+01|   -8.601396|  4.9514e-06|    0.103689|
|        1750|  4.9335e+01|  4.9335e+01|   -8.611114|  5.3295e-06|    0.103700|
|        1760|  4.9335e+01|  4.9335e+01|   -8.620067|  5.6942e-06|    0.103711|
|        1770|  4.9335e+01|  4.9335e+01|   -8.628866|  6.0594e-06|    0.103721|
|        1780|  4.9335e+01|  4.9335e+01|   -8.637885|  6.3772e-06|    0.103731|
|        1790|  4.9335e+01|  4.9335e+01|   -8.646556|  6.6754e-06|    0.103742|
|        1800|  4.9335e+01|  4.9335e+01|   -8.654765|  6.9962e-06|    0.103754|
+-----------------------------------------------------------------------+
|        File Writing Summary       |              Filename             |
+-----------------------------------------------------------------------+
|SU2 binary restart                 |restart_flow_G6.dat                |
|Paraview                           |flow_G6.vtu                        |
|Paraview surface                   |surface_flow_G6.vtu                |
+-----------------------------------------------------------------------+
+-----------------------------------------------------------------------------+
|  Inner_Iter|     Min CFL|     Max CFL|      rms[P]|  Cauchy[CD]|          CD|
+-----------------------------------------------------------------------------+
|        1810|  4.9335e+01|  4.9335e+01|   -8.662916|  7.2760e-06|    0.103765|
|        1820|  7.1043e+00|  7.1043e+00|   -8.672459|  7.4247e-06|    0.103774|
|        1830|  4.3988e+01|  4.3988e+01|   -8.677124|  7.3956e-06|    0.103779|
|        1840|  2.2697e+01|  2.2697e+01|   -8.680803|  7.3915e-06|    0.103784|
|        1850|  4.7064e+01|  4.7064e+01|   -8.682598|  7.6068e-06|    0.103793|
|        1860|  4.7064e+01|  4.7064e+01|   -8.690328|  7.9433e-06|    0.103804|
|        1870|  4.7064e+01|  4.7064e+01|   -8.698353|  8.1978e-06|    0.103815|
|        1880|  4.7064e+01|  4.7064e+01|   -8.706408|  8.3764e-06|    0.103826|
|        1890|  4.7064e+01|  4.7064e+01|   -8.714702|  8.5535e-06|    0.103837|
|        1900|  4.7064e+01|  4.7064e+01|   -8.722289|  8.6882e-06|    0.103849|
|        1910|  4.7064e+01|  4.7064e+01|   -8.729159|  8.7906e-06|    0.103860|
|        1920|  4.7064e+01|  4.7064e+01|   -8.735675|  8.8867e-06|    0.103871|
|        1930|  4.7064e+01|  4.7064e+01|   -8.741958|  9.1154e-06|    0.103882|
|        1940|  4.7064e+01|  4.7064e+01|   -8.747942|  9.3270e-06|    0.103893|
|        1950|  4.7064e+01|  4.7064e+01|   -8.753644|  9.6494e-06|    0.103905|
|        1960|  4.7064e+01|  4.7064e+01|   -8.759135|  9.8058e-06|    0.103916|
|        1970|  4.7064e+01|  4.7064e+01|   -8.764435|  9.8858e-06|    0.103927|
|        1980|  4.7064e+01|  4.7064e+01|   -8.769416|  9.9454e-06|    0.103938|
|        1990|  4.7064e+01|  4.7064e+01|   -8.774133|  9.9766e-06|    0.103948|
|        2000|  4.7064e+01|  4.7064e+01|   -8.778832|  9.9840e-06|    0.103959|
+-----------------------------------------------------------------------+
|        File Writing Summary       |              Filename             |
+-----------------------------------------------------------------------+
|SU2 binary restart                 |restart_flow_G6.dat                |
|Paraview                           |flow_G6.vtu                        |
|Paraview surface                   |surface_flow_G6.vtu                |
+-----------------------------------------------------------------------+
+-----------------------------------------------------------------------------+
|  Inner_Iter|     Min CFL|     Max CFL|      rms[P]|  Cauchy[CD]|          CD|
+-----------------------------------------------------------------------------+
|        2010|  4.7064e+01|  4.7064e+01|   -8.783621|  9.9825e-06|    0.103970|
|        2020|  4.7064e+01|  4.7064e+01|   -8.788434|  9.9867e-06|    0.103980|
|        2030|  4.7064e+01|  4.7064e+01|   -8.793150|  9.9924e-06|    0.103991|
|        2040|  4.7064e+01|  4.7064e+01|   -8.797599|  9.9793e-06|    0.104001|
|        2050|  2.0237e+01|  2.0237e+01|   -8.802836|  9.6920e-06|    0.104005|
|        2060|  1.0442e+01|  1.0442e+01|   -8.804825|  9.4579e-06|    0.104011|
|        2070|  5.3877e+00|  5.3877e+00|   -8.805059|  9.3187e-06|    0.104016|
|        2080|  3.3359e+01|  3.3359e+01|   -8.808450|  9.2424e-06|    0.104019|
|        2090|  1.7213e+01|  1.7213e+01|   -8.810065|  9.2283e-06|    0.104023|
|        2100|  8.8813e+00|  8.8813e+00|   -8.811323|  9.0851e-06|    0.104029|
|        2110|  4.5826e+01|  4.5826e+01|   -8.812723|  8.8531e-06|    0.104034|
|        2120|  4.5826e+01|  4.5826e+01|   -8.813789|  8.7864e-06|    0.104043|
|        2130|  4.5826e+01|  4.5826e+01|   -8.818060|  8.7327e-06|    0.104053|
|        2140|  4.5826e+01|  4.5826e+01|   -8.822284|  8.6700e-06|    0.104063|
|        2150|  4.5826e+01|  4.5826e+01|   -8.826588|  8.6139e-06|    0.104073|
|        2160|  4.5826e+01|  4.5826e+01|   -8.830606|  8.5650e-06|    0.104083|
|        2170|  4.5826e+01|  4.5826e+01|   -8.834702|  8.5162e-06|    0.104093|
|        2180|  4.5826e+01|  4.5826e+01|   -8.839247|  8.4632e-06|    0.104102|
|        2190|  4.5826e+01|  4.5826e+01|   -8.844046|  8.4029e-06|    0.104112|
|        2200|  4.5826e+01|  4.5826e+01|   -8.848700|  8.3389e-06|    0.104121|
+-----------------------------------------------------------------------+
|        File Writing Summary       |              Filename             |
+-----------------------------------------------------------------------+
|SU2 binary restart                 |restart_flow_G6.dat                |
|Paraview                           |flow_G6.vtu                        |
|Paraview surface                   |surface_flow_G6.vtu                |
+-----------------------------------------------------------------------+
+-----------------------------------------------------------------------------+
|  Inner_Iter|     Min CFL|     Max CFL|      rms[P]|  Cauchy[CD]|          CD|
+-----------------------------------------------------------------------------+
|        2210|  4.5826e+01|  4.5826e+01|   -8.853295|  8.2812e-06|    0.104131|
|        2220|  4.5826e+01|  4.5826e+01|   -8.858094|  8.2303e-06|    0.104141|
|        2230|  4.5826e+01|  4.5826e+01|   -8.863021|  8.1810e-06|    0.104150|
|        2240|  4.5826e+01|  4.5826e+01|   -8.867808|  8.1335e-06|    0.104160|
|        2250|  4.5826e+01|  4.5826e+01|   -8.872346|  8.0867e-06|    0.104169|
|        2260|  4.5826e+01|  4.5826e+01|   -8.876774|  8.0372e-06|    0.104179|
|        2270|  4.5826e+01|  4.5826e+01|   -8.881227|  7.9869e-06|    0.104188|
|        2280|  4.5826e+01|  4.5826e+01|   -8.885705|  7.9409e-06|    0.104198|
|        2290|  4.5826e+01|  4.5826e+01|   -8.890108|  7.8984e-06|    0.104207|
|        2300|  4.5826e+01|  4.5826e+01|   -8.894301|  8.1050e-06|    0.104216|
|        2310|  4.5826e+01|  4.5826e+01|   -8.898213|  8.2496e-06|    0.104225|
|        2320|  4.5826e+01|  4.5826e+01|   -8.901948|  8.3767e-06|    0.104235|
|        2330|  4.5826e+01|  4.5826e+01|   -8.905717|  8.6158e-06|    0.104244|
|        2340|  4.5826e+01|  4.5826e+01|   -8.909627|  8.8099e-06|    0.104253|
|        2350|  4.5826e+01|  4.5826e+01|   -8.913589|  8.9572e-06|    0.104262|
|        2360|  4.5826e+01|  4.5826e+01|   -8.917426|  9.1142e-06|    0.104271|
|        2370|  4.5826e+01|  4.5826e+01|   -8.921932|  9.1021e-06|    0.104280|
|        2380|  4.5826e+01|  4.5826e+01|   -8.925802|  9.0701e-06|    0.104289|
|        2390|  4.5826e+01|  4.5826e+01|   -8.929417|  9.0333e-06|    0.104298|
|        2400|  4.5826e+01|  4.5826e+01|   -8.932849|  8.9889e-06|    0.104307|
+-----------------------------------------------------------------------+
|        File Writing Summary       |              Filename             |
+-----------------------------------------------------------------------+
|SU2 binary restart                 |restart_flow_G6.dat                |
|Paraview                           |flow_G6.vtu                        |
|Paraview surface                   |surface_flow_G6.vtu                |
+-----------------------------------------------------------------------+
+-----------------------------------------------------------------------------+
|  Inner_Iter|     Min CFL|     Max CFL|      rms[P]|  Cauchy[CD]|          CD|
+-----------------------------------------------------------------------------+
|        2410|  4.5826e+01|  4.5826e+01|   -8.936185|  8.9445e-06|    0.104316|
|        2420|  4.5826e+01|  4.5826e+01|   -8.939559|  8.9075e-06|    0.104325|
|        2430|  4.5826e+01|  4.5826e+01|   -8.943092|  8.8808e-06|    0.104334|
|        2440|  4.5826e+01|  4.5826e+01|   -8.946758|  8.8588e-06|    0.104343|
|        2450|  4.5826e+01|  4.5826e+01|   -8.950466|  8.8336e-06|    0.104352|
|        2460|  4.5826e+01|  4.5826e+01|   -8.954124|  8.8025e-06|    0.104360|
|        2470|  4.5826e+01|  4.5826e+01|   -8.957664|  8.7691e-06|    0.104369|
|        2480|  4.5826e+01|  4.5826e+01|   -8.961107|  8.7371e-06|    0.104378|
|        2490|  4.5826e+01|  4.5826e+01|   -8.964521|  8.7082e-06|    0.104387|
|        2500|  4.5826e+01|  4.5826e+01|   -8.967976|  8.6832e-06|    0.104396|
|        2510|  4.5826e+01|  4.5826e+01|   -8.971499|  8.6609e-06|    0.104405|
|        2520|  4.5826e+01|  4.5826e+01|   -8.975068|  8.6381e-06|    0.104413|
|        2530|  4.5826e+01|  4.5826e+01|   -8.978652|  8.6139e-06|    0.104422|
|        2540|  4.5826e+01|  4.5826e+01|   -8.982240|  8.5913e-06|    0.104431|
|        2550|  4.5826e+01|  4.5826e+01|   -8.985857|  8.5725e-06|    0.104440|
|        2560|  4.5826e+01|  4.5826e+01|   -8.989538|  8.5567e-06|    0.104449|
|        2570|  4.5826e+01|  4.5826e+01|   -8.993303|  8.5418e-06|    0.104457|
|        2580|  4.5826e+01|  4.5826e+01|   -8.997142|  8.5276e-06|    0.104466|
|        2590|  4.5826e+01|  4.5826e+01|   -9.001032|  8.5143e-06|    0.104475|
|        2600|  4.5826e+01|  4.5826e+01|   -9.004949|  8.5024e-06|    0.104484|
+-----------------------------------------------------------------------+
|        File Writing Summary       |              Filename             |
+-----------------------------------------------------------------------+
|SU2 binary restart                 |restart_flow_G6.dat                |
|Paraview                           |flow_G6.vtu                        |
|Paraview surface                   |surface_flow_G6.vtu                |
+-----------------------------------------------------------------------+
+-----------------------------------------------------------------------------+
|  Inner_Iter|     Min CFL|     Max CFL|      rms[P]|  Cauchy[CD]|          CD|
+-----------------------------------------------------------------------------+
|        2610|  4.5826e+01|  4.5826e+01|   -9.008881|  8.4925e-06|    0.104493|
|        2620|  4.5826e+01|  4.5826e+01|   -9.012824|  8.4829e-06|    0.104501|
|        2630|  4.5826e+01|  4.5826e+01|   -9.016777|  8.4713e-06|    0.104510|
|        2640|  4.5826e+01|  4.5826e+01|   -9.020738|  8.4625e-06|    0.104519|
|        2650|  4.5826e+01|  4.5826e+01|   -9.024708|  8.4553e-06|    0.104528|
|        2660|  4.5826e+01|  4.5826e+01|   -9.028686|  8.4488e-06|    0.104537|
|        2670|  4.5826e+01|  4.5826e+01|   -9.032670|  8.4430e-06|    0.104545|
|        2680|  4.5826e+01|  4.5826e+01|   -9.036656|  8.4378e-06|    0.104554|
|        2690|  4.5826e+01|  4.5826e+01|   -9.040643|  8.4332e-06|    0.104563|
|        2700|  4.5826e+01|  4.5826e+01|   -9.044630|  8.4291e-06|    0.104572|
|        2710|  4.5826e+01|  4.5826e+01|   -9.048621|  8.4258e-06|    0.104581|
|        2720|  4.5826e+01|  4.5826e+01|   -9.052623|  8.4231e-06|    0.104589|
|        2730|  4.5826e+01|  4.5826e+01|   -9.056641|  8.4206e-06|    0.104598|
|        2740|  4.5826e+01|  4.5826e+01|   -9.060680|  8.4182e-06|    0.104607|
|        2750|  4.5826e+01|  4.5826e+01|   -9.064743|  8.4154e-06|    0.104616|
|        2760|  4.5826e+01|  4.5826e+01|   -9.068829|  8.4126e-06|    0.104624|
|        2770|  4.5826e+01|  4.5826e+01|   -9.072933|  8.4097e-06|    0.104633|
|        2780|  4.5826e+01|  4.5826e+01|   -9.077053|  8.4069e-06|    0.104642|
|        2790|  4.5826e+01|  4.5826e+01|   -9.081185|  8.4041e-06|    0.104651|
|        2800|  4.5826e+01|  4.5826e+01|   -9.085330|  8.4012e-06|    0.104659|
+-----------------------------------------------------------------------+
|        File Writing Summary       |              Filename             |
+-----------------------------------------------------------------------+
|SU2 binary restart                 |restart_flow_G6.dat                |
|Paraview                           |flow_G6.vtu                        |
|Paraview surface                   |surface_flow_G6.vtu                |
+-----------------------------------------------------------------------+
+-----------------------------------------------------------------------------+
|  Inner_Iter|     Min CFL|     Max CFL|      rms[P]|  Cauchy[CD]|          CD|
+-----------------------------------------------------------------------------+
|        2810|  4.5826e+01|  4.5826e+01|   -9.089487|  8.3981e-06|    0.104668|
|        2820|  4.5826e+01|  4.5826e+01|   -9.093657|  8.3946e-06|    0.104677|
|        2830|  4.5826e+01|  4.5826e+01|   -9.097842|  8.3906e-06|    0.104686|
|        2840|  4.5826e+01|  4.5826e+01|   -9.102042|  8.3861e-06|    0.104694|
|        2850|  4.5826e+01|  4.5826e+01|   -9.106256|  8.3812e-06|    0.104703|
|        2860|  4.5826e+01|  4.5826e+01|   -9.110478|  8.3758e-06|    0.104712|
|        2870|  4.5826e+01|  4.5826e+01|   -9.114708|  8.3700e-06|    0.104720|
|        2880|  4.5826e+01|  4.5826e+01|   -9.118951|  8.3637e-06|    0.104729|
|        2890|  4.5826e+01|  4.5826e+01|   -9.123210|  8.3566e-06|    0.104738|
|        2900|  4.5826e+01|  4.5826e+01|   -9.127485|  8.3488e-06|    0.104746|
|        2910|  4.5826e+01|  4.5826e+01|   -9.131774|  8.3403e-06|    0.104755|
|        2920|  4.5826e+01|  4.5826e+01|   -9.136073|  8.3313e-06|    0.104763|
|        2930|  4.5826e+01|  4.5826e+01|   -9.140382|  8.3217e-06|    0.104772|
|        2940|  4.5826e+01|  4.5826e+01|   -9.144703|  8.3119e-06|    0.104780|
|        2950|  4.5826e+01|  4.5826e+01|   -9.149034|  8.3016e-06|    0.104789|
|        2960|  4.5826e+01|  4.5826e+01|   -9.153374|  8.2909e-06|    0.104798|
|        2970|  4.5826e+01|  4.5826e+01|   -9.157722|  8.2796e-06|    0.104806|
|        2980|  4.5826e+01|  4.5826e+01|   -9.162075|  8.2678e-06|    0.104815|
|        2990|  4.5826e+01|  4.5826e+01|   -9.166433|  8.2554e-06|    0.104823|
|        3000|  4.5826e+01|  4.5826e+01|   -9.170791|  8.2426e-06|    0.104831|
+-----------------------------------------------------------------------+
|        File Writing Summary       |              Filename             |
+-----------------------------------------------------------------------+
|SU2 binary restart                 |restart_flow_G6.dat                |
|Paraview                           |flow_G6.vtu                        |
|Paraview surface                   |surface_flow_G6.vtu                |
+-----------------------------------------------------------------------+
+-----------------------------------------------------------------------------+
|  Inner_Iter|     Min CFL|     Max CFL|      rms[P]|  Cauchy[CD]|          CD|
+-----------------------------------------------------------------------------+
|        3010|  4.5826e+01|  4.5826e+01|   -9.175147|  8.2293e-06|    0.104840|
|        3020|  4.5826e+01|  4.5826e+01|   -9.179501|  8.2154e-06|    0.104848|
|        3030|  4.5826e+01|  4.5826e+01|   -9.183851|  8.2008e-06|    0.104857|
|        3040|  4.5826e+01|  4.5826e+01|   -9.188194|  8.1856e-06|    0.104865|
|        3050|  4.5826e+01|  4.5826e+01|   -9.192529|  8.1697e-06|    0.104873|
|        3060|  4.5826e+01|  4.5826e+01|   -9.196857|  8.1532e-06|    0.104882|
|        3070|  4.5826e+01|  4.5826e+01|   -9.201176|  8.1360e-06|    0.104890|
|        3080|  1.6420e+01|  1.6420e+01|   -9.206334|  7.9394e-06|    0.104893|
|        3090|  8.4724e+00|  8.4724e+00|   -9.208785|  7.7712e-06|    0.104898|
|        3100|  5.2459e+01|  5.2459e+01|   -9.210236|  7.5903e-06|    0.104902|
|        3110|  2.7068e+01|  2.7068e+01|   -9.212711|  7.3662e-06|    0.104905|
|        3120|  1.3966e+01|  1.3966e+01|   -9.214520|  7.1669e-06|    0.104908|
|        3130|  7.2063e+00|  7.2063e+00|   -9.215877|  7.0013e-06|    0.104912|
|        3140|  4.4620e+01|  4.4620e+01|   -9.218204|  6.7980e-06|    0.104916|
|        3150|  4.4620e+01|  4.4620e+01|   -9.218892|  6.7640e-06|    0.104923|
|        3160|  4.4620e+01|  4.4620e+01|   -9.223169|  6.7380e-06|    0.104931|
|        3170|  4.4620e+01|  4.4620e+01|   -9.227459|  6.7119e-06|    0.104939|
|        3180|  4.4620e+01|  4.4620e+01|   -9.231740|  6.6876e-06|    0.104947|
|        3190|  4.4620e+01|  4.4620e+01|   -9.235844|  6.6644e-06|    0.104955|
|        3200|  4.4620e+01|  4.4620e+01|   -9.239811|  6.6405e-06|    0.104963|
+-----------------------------------------------------------------------+
|        File Writing Summary       |              Filename             |
+-----------------------------------------------------------------------+
|SU2 binary restart                 |restart_flow_G6.dat                |
|Paraview                           |flow_G6.vtu                        |
|Paraview surface                   |surface_flow_G6.vtu                |
+-----------------------------------------------------------------------+
+-----------------------------------------------------------------------------+
|  Inner_Iter|     Min CFL|     Max CFL|      rms[P]|  Cauchy[CD]|          CD|
+-----------------------------------------------------------------------------+
|        3210|  4.4620e+01|  4.4620e+01|   -9.244027|  6.6129e-06|    0.104971|
|        3220|  4.4620e+01|  4.4620e+01|   -9.248399|  6.5817e-06|    0.104979|
|        3230|  4.4620e+01|  4.4620e+01|   -9.252588|  6.5500e-06|    0.104986|
|        3240|  4.4620e+01|  4.4620e+01|   -9.256525|  6.5204e-06|    0.104994|
|        3250|  4.4620e+01|  4.4620e+01|   -9.260528|  6.4924e-06|    0.105002|
|        3260|  4.4620e+01|  4.4620e+01|   -9.264738|  6.4642e-06|    0.105009|
|        3270|  4.4620e+01|  4.4620e+01|   -9.269040|  6.4349e-06|    0.105017|
|        3280|  4.4620e+01|  4.4620e+01|   -9.273234|  6.4047e-06|    0.105025|
|        3290|  4.4620e+01|  4.4620e+01|   -9.277274|  6.3736e-06|    0.105032|
|        3300|  4.4620e+01|  4.4620e+01|   -9.281254|  6.3422e-06|    0.105040|
|        3310|  4.4620e+01|  4.4620e+01|   -9.285294|  6.3113e-06|    0.105047|
|        3320|  4.4620e+01|  4.4620e+01|   -9.289461|  6.2810e-06|    0.105055|
|        3330|  4.4620e+01|  4.4620e+01|   -9.293698|  6.4291e-06|    0.105062|
|        3340|  4.4620e+01|  4.4620e+01|   -9.297847|  6.5472e-06|    0.105070|
|        3350|  4.4620e+01|  4.4620e+01|   -9.301814|  6.6769e-06|    0.105077|
|        3360|  4.4620e+01|  4.4620e+01|   -9.305705|  6.8493e-06|    0.105084|
|        3370|  4.4620e+01|  4.4620e+01|   -9.309714|  6.9966e-06|    0.105092|
|        3380|  4.4620e+01|  4.4620e+01|   -9.313908|  7.1097e-06|    0.105099|
|        3390|  4.4620e+01|  4.4620e+01|   -9.318181|  7.2598e-06|    0.105106|
|        3400|  4.4620e+01|  4.4620e+01|   -9.322370|  7.2397e-06|    0.105113|
+-----------------------------------------------------------------------+
|        File Writing Summary       |              Filename             |
+-----------------------------------------------------------------------+
|SU2 binary restart                 |restart_flow_G6.dat                |
|Paraview                           |flow_G6.vtu                        |
|Paraview surface                   |surface_flow_G6.vtu                |
+-----------------------------------------------------------------------+
+-----------------------------------------------------------------------------+
|  Inner_Iter|     Min CFL|     Max CFL|      rms[P]|  Cauchy[CD]|          CD|
+-----------------------------------------------------------------------------+
|        3410|  4.4620e+01|  4.4620e+01|   -9.326391|  7.2107e-06|    0.105121|
|        3420|  4.4620e+01|  4.4620e+01|   -9.330281|  7.1809e-06|    0.105128|
|        3430|  4.4620e+01|  4.4620e+01|   -9.334149|  7.1488e-06|    0.105135|
|        3440|  4.4620e+01|  4.4620e+01|   -9.338093|  7.1150e-06|    0.105142|
|        3450|  4.4620e+01|  4.4620e+01|   -9.342139|  7.0816e-06|    0.105149|
|        3460|  4.4620e+01|  4.4620e+01|   -9.346239|  7.0513e-06|    0.105156|
|        3470|  4.4620e+01|  4.4620e+01|   -9.350321|  7.0241e-06|    0.105163|
|        3480|  4.4620e+01|  4.4620e+01|   -9.354342|  6.9969e-06|    0.105170|
|        3490|  4.4620e+01|  4.4620e+01|   -9.358299|  6.9670e-06|    0.105177|
|        3500|  4.4620e+01|  4.4620e+01|   -9.362212|  6.9349e-06|    0.105184|
|        3510|  4.4620e+01|  4.4620e+01|   -9.366108|  6.9024e-06|    0.105191|
|        3520|  4.4620e+01|  4.4620e+01|   -9.370010|  6.8707e-06|    0.105198|
|        3530|  4.4620e+01|  4.4620e+01|   -9.373932|  6.8396e-06|    0.105204|
|        3540|  4.4620e+01|  4.4620e+01|   -9.377874|  6.8089e-06|    0.105211|
|        3550|  4.4620e+01|  4.4620e+01|   -9.381819|  6.7783e-06|    0.105218|
|        3560|  4.4620e+01|  4.4620e+01|   -9.385741|  6.7468e-06|    0.105225|
|        3570|  4.4620e+01|  4.4620e+01|   -9.389625|  6.7142e-06|    0.105231|
|        3580|  4.4620e+01|  4.4620e+01|   -9.393473|  6.6817e-06|    0.105238|
|        3590|  4.4620e+01|  4.4620e+01|   -9.397306|  6.6499e-06|    0.105244|
|        3600|  4.4620e+01|  4.4620e+01|   -9.401145|  6.6184e-06|    0.105251|
+-----------------------------------------------------------------------+
|        File Writing Summary       |              Filename             |
+-----------------------------------------------------------------------+
|SU2 binary restart                 |restart_flow_G6.dat                |
|Paraview                           |flow_G6.vtu                        |
|Paraview surface                   |surface_flow_G6.vtu                |
+-----------------------------------------------------------------------+
+-----------------------------------------------------------------------------+
|  Inner_Iter|     Min CFL|     Max CFL|      rms[P]|  Cauchy[CD]|          CD|
+-----------------------------------------------------------------------------+
|        3610|  4.4620e+01|  4.4620e+01|   -9.404997|  6.5866e-06|    0.105258|
|        3620|  4.4620e+01|  4.4620e+01|   -9.408852|  6.5543e-06|    0.105264|
|        3630|  4.4620e+01|  4.4620e+01|   -9.412695|  6.5217e-06|    0.105270|
|        3640|  4.4620e+01|  4.4620e+01|   -9.416517|  6.4889e-06|    0.105277|
|        3650|  4.4620e+01|  4.4620e+01|   -9.420318|  6.4560e-06|    0.105283|
|        3660|  4.4620e+01|  4.4620e+01|   -9.424106|  6.4234e-06|    0.105290|
|        3670|  4.4620e+01|  4.4620e+01|   -9.427892|  6.3910e-06|    0.105296|
|        3680|  4.4620e+01|  4.4620e+01|   -9.431676|  6.3586e-06|    0.105302|
|        3690|  4.4620e+01|  4.4620e+01|   -9.435455|  6.3260e-06|    0.105308|
|        3700|  4.4620e+01|  4.4620e+01|   -9.439224|  6.2933e-06|    0.105315|
|        3710|  4.4620e+01|  4.4620e+01|   -9.442981|  6.2605e-06|    0.105321|
|        3720|  4.4620e+01|  4.4620e+01|   -9.446727|  6.2276e-06|    0.105327|
|        3730|  4.4620e+01|  4.4620e+01|   -9.450465|  6.1947e-06|    0.105333|
|        3740|  4.4620e+01|  4.4620e+01|   -9.454196|  6.1619e-06|    0.105339|
|        3750|  4.4620e+01|  4.4620e+01|   -9.457923|  6.1291e-06|    0.105345|
|        3760|  4.4620e+01|  4.4620e+01|   -9.461643|  6.0965e-06|    0.105351|
|        3770|  4.4620e+01|  4.4620e+01|   -9.465356|  6.0638e-06|    0.105357|
|        3780|  4.4620e+01|  4.4620e+01|   -9.469062|  6.0311e-06|    0.105363|
|        3790|  4.4620e+01|  4.4620e+01|   -9.472759|  5.9983e-06|    0.105369|
|        3800|  4.4620e+01|  4.4620e+01|   -9.476447|  5.9654e-06|    0.105375|
+-----------------------------------------------------------------------+
|        File Writing Summary       |              Filename             |
+-----------------------------------------------------------------------+
|SU2 binary restart                 |restart_flow_G6.dat                |
|Paraview                           |flow_G6.vtu                        |
|Paraview surface                   |surface_flow_G6.vtu                |
+-----------------------------------------------------------------------+
+-----------------------------------------------------------------------------+
|  Inner_Iter|     Min CFL|     Max CFL|      rms[P]|  Cauchy[CD]|          CD|
+-----------------------------------------------------------------------------+
|        3810|  4.4620e+01|  4.4620e+01|   -9.480127|  5.9327e-06|    0.105381|
|        3820|  4.4620e+01|  4.4620e+01|   -9.483798|  5.9000e-06|    0.105387|
|        3830|  4.4620e+01|  4.4620e+01|   -9.487460|  5.8674e-06|    0.105392|
|        3840|  4.4620e+01|  4.4620e+01|   -9.491114|  5.8349e-06|    0.105398|
|        3850|  4.4620e+01|  4.4620e+01|   -9.494757|  5.8023e-06|    0.105404|
|        3860|  4.4620e+01|  4.4620e+01|   -9.498392|  5.7699e-06|    0.105409|
|        3870|  4.4620e+01|  4.4620e+01|   -9.502022|  5.7375e-06|    0.105415|
|        3880|  4.4620e+01|  4.4620e+01|   -9.505648|  5.7052e-06|    0.105421|
|        3890|  4.4620e+01|  4.4620e+01|   -9.509271|  5.6731e-06|    0.105426|
|        3900|  4.4620e+01|  4.4620e+01|   -9.512886|  5.6412e-06|    0.105432|
|        3910|  4.4620e+01|  4.4620e+01|   -9.516492|  5.6093e-06|    0.105437|
|        3920|  4.4620e+01|  4.4620e+01|   -9.520086|  5.5775e-06|    0.105443|
|        3930|  4.4620e+01|  4.4620e+01|   -9.523667|  5.5458e-06|    0.105448|
|        3940|  4.4620e+01|  4.4620e+01|   -9.527238|  5.5141e-06|    0.105454|
|        3950|  4.4620e+01|  4.4620e+01|   -9.530802|  5.4825e-06|    0.105459|
|        3960|  4.4620e+01|  4.4620e+01|   -9.534359|  5.4511e-06|    0.105464|
|        3970|  4.4620e+01|  4.4620e+01|   -9.537911|  5.4198e-06|    0.105470|
|        3980|  4.4620e+01|  4.4620e+01|   -9.541458|  5.3886e-06|    0.105475|
|        3990|  4.4620e+01|  4.4620e+01|   -9.545001|  5.3576e-06|    0.105480|
|        4000|  4.4620e+01|  4.4620e+01|   -9.548536|  5.3267e-06|    0.105486|
+-----------------------------------------------------------------------+
|        File Writing Summary       |              Filename             |
+-----------------------------------------------------------------------+
|SU2 binary restart                 |restart_flow_G6.dat                |
|Paraview                           |flow_G6.vtu                        |
|Paraview surface                   |surface_flow_G6.vtu                |
+-----------------------------------------------------------------------+
+-----------------------------------------------------------------------------+
|  Inner_Iter|     Min CFL|     Max CFL|      rms[P]|  Cauchy[CD]|          CD|
+-----------------------------------------------------------------------------+
|        4010|  4.4620e+01|  4.4620e+01|   -9.552064|  5.2958e-06|    0.105491|
|        4020|  4.4620e+01|  4.4620e+01|   -9.555585|  5.2651e-06|    0.105496|
|        4030|  4.4620e+01|  4.4620e+01|   -9.559099|  5.2345e-06|    0.105501|
|        4040|  4.4620e+01|  4.4620e+01|   -9.562606|  5.2039e-06|    0.105506|
|        4050|  4.4620e+01|  4.4620e+01|   -9.566106|  5.1736e-06|    0.105511|
|        4060|  4.4620e+01|  4.4620e+01|   -9.569601|  5.1433e-06|    0.105516|
|        4070|  4.4620e+01|  4.4620e+01|   -9.573093|  5.1132e-06|    0.105521|
|        4080|  4.4620e+01|  4.4620e+01|   -9.576582|  5.0832e-06|    0.105526|
|        4090|  4.4620e+01|  4.4620e+01|   -9.580068|  5.0534e-06|    0.105531|
|        4100|  4.4620e+01|  4.4620e+01|   -9.583549|  5.0236e-06|    0.105536|
|        4110|  4.4620e+01|  4.4620e+01|   -9.587025|  4.9939e-06|    0.105541|
|        4120|  4.4620e+01|  4.4620e+01|   -9.590496|  4.9642e-06|    0.105546|
|        4130|  4.4620e+01|  4.4620e+01|   -9.593961|  4.9346e-06|    0.105551|
|        4140|  4.4620e+01|  4.4620e+01|   -9.597421|  4.9051e-06|    0.105556|
|        4150|  4.4620e+01|  4.4620e+01|   -9.600878|  4.8756e-06|    0.105560|
|        4160|  4.4620e+01|  4.4620e+01|   -9.604332|  4.8462e-06|    0.105565|
|        4170|  4.4620e+01|  4.4620e+01|   -9.607782|  4.8169e-06|    0.105570|
|        4180|  4.4620e+01|  4.4620e+01|   -9.611228|  4.7877e-06|    0.105575|
|        4190|  4.4620e+01|  4.4620e+01|   -9.614671|  4.7586e-06|    0.105579|
|        4200|  4.4620e+01|  4.4620e+01|   -9.618108|  4.7296e-06|    0.105584|
+-----------------------------------------------------------------------+
|        File Writing Summary       |              Filename             |
+-----------------------------------------------------------------------+
|SU2 binary restart                 |restart_flow_G6.dat                |
|Paraview                           |flow_G6.vtu                        |
|Paraview surface                   |surface_flow_G6.vtu                |
+-----------------------------------------------------------------------+
+-----------------------------------------------------------------------------+
|  Inner_Iter|     Min CFL|     Max CFL|      rms[P]|  Cauchy[CD]|          CD|
+-----------------------------------------------------------------------------+
|        4210|  4.4620e+01|  4.4620e+01|   -9.621542|  4.7008e-06|    0.105588|
|        4220|  4.4620e+01|  4.4620e+01|   -9.624971|  4.6720e-06|    0.105593|
|        4230|  4.4620e+01|  4.4620e+01|   -9.628397|  4.6434e-06|    0.105598|
|        4240|  4.4620e+01|  4.4620e+01|   -9.631820|  4.6149e-06|    0.105602|
|        4250|  4.4620e+01|  4.4620e+01|   -9.635239|  4.5864e-06|    0.105607|
|        4260|  4.4620e+01|  4.4620e+01|   -9.638652|  4.5581e-06|    0.105611|
|        4270|  4.4620e+01|  4.4620e+01|   -9.642059|  4.5299e-06|    0.105616|
|        4280|  4.4620e+01|  4.4620e+01|   -9.645457|  4.5019e-06|    0.105620|
|        4290|  4.4620e+01|  4.4620e+01|   -9.648849|  4.4739e-06|    0.105624|
|        4300|  4.4620e+01|  4.4620e+01|   -9.652235|  4.4461e-06|    0.105629|
|        4310|  4.4620e+01|  4.4620e+01|   -9.655615|  4.4185e-06|    0.105633|
|        4320|  4.4620e+01|  4.4620e+01|   -9.658990|  4.3909e-06|    0.105637|
|        4330|  4.4620e+01|  4.4620e+01|   -9.662361|  4.3635e-06|    0.105642|
|        4340|  4.4620e+01|  4.4620e+01|   -9.665726|  4.3362e-06|    0.105646|
|        4350|  4.4620e+01|  4.4620e+01|   -9.669084|  4.3091e-06|    0.105650|
|        4360|  4.4620e+01|  4.4620e+01|   -9.672434|  4.2821e-06|    0.105654|
|        4370|  4.4620e+01|  4.4620e+01|   -9.675777|  4.2552e-06|    0.105658|
|        4380|  4.4620e+01|  4.4620e+01|   -9.679113|  4.2285e-06|    0.105663|
|        4390|  4.4620e+01|  4.4620e+01|   -9.682443|  4.2019e-06|    0.105667|
|        4400|  4.4620e+01|  4.4620e+01|   -9.685770|  4.1754e-06|    0.105671|
+-----------------------------------------------------------------------+
|        File Writing Summary       |              Filename             |
+-----------------------------------------------------------------------+
|SU2 binary restart                 |restart_flow_G6.dat                |
|Paraview                           |flow_G6.vtu                        |
|Paraview surface                   |surface_flow_G6.vtu                |
+-----------------------------------------------------------------------+
+-----------------------------------------------------------------------------+
|  Inner_Iter|     Min CFL|     Max CFL|      rms[P]|  Cauchy[CD]|          CD|
+-----------------------------------------------------------------------------+
|        4410|  4.4620e+01|  4.4620e+01|   -9.689092|  4.1491e-06|    0.105675|
|        4420|  4.4620e+01|  4.4620e+01|   -9.692410|  4.1230e-06|    0.105679|
|        4430|  4.4620e+01|  4.4620e+01|   -9.695722|  4.0970e-06|    0.105683|
|        4440|  4.4620e+01|  4.4620e+01|   -9.699029|  4.0712e-06|    0.105687|
|        4450|  4.4620e+01|  4.4620e+01|   -9.702331|  4.0454e-06|    0.105691|
|        4460|  4.4620e+01|  4.4620e+01|   -9.705630|  4.0198e-06|    0.105695|
|        4470|  4.4620e+01|  4.4620e+01|   -9.708925|  3.9944e-06|    0.105699|
|        4480|  4.4620e+01|  4.4620e+01|   -9.712218|  3.9690e-06|    0.105702|
|        4490|  4.4620e+01|  4.4620e+01|   -9.715508|  3.9438e-06|    0.105706|
|        4500|  4.4620e+01|  4.4620e+01|   -9.718796|  3.9187e-06|    0.105710|
|        4510|  4.4620e+01|  4.4620e+01|   -9.722079|  3.8938e-06|    0.105714|
|        4520|  4.4620e+01|  4.4620e+01|   -9.725360|  3.8690e-06|    0.105718|
|        4530|  4.4620e+01|  4.4620e+01|   -9.728638|  3.8444e-06|    0.105721|
|        4540|  4.4620e+01|  4.4620e+01|   -9.731915|  3.8200e-06|    0.105725|
|        4550|  4.4620e+01|  4.4620e+01|   -9.735190|  3.7957e-06|    0.105729|
|        4560|  4.4620e+01|  4.4620e+01|   -9.738465|  3.7715e-06|    0.105733|
|        4570|  4.4620e+01|  4.4620e+01|   -9.741739|  3.7475e-06|    0.105736|
|        4580|  4.4620e+01|  4.4620e+01|   -9.745011|  3.7236e-06|    0.105740|
|        4590|  4.4620e+01|  4.4620e+01|   -9.748280|  3.6999e-06|    0.105744|
|        4600|  1.1103e+01|  1.1103e+01|   -9.752953|  3.6186e-06|    0.105746|
+-----------------------------------------------------------------------+
|        File Writing Summary       |              Filename             |
+-----------------------------------------------------------------------+
|SU2 binary restart                 |restart_flow_G6.dat                |
|Paraview                           |flow_G6.vtu                        |
|Paraview surface                   |surface_flow_G6.vtu                |
+-----------------------------------------------------------------------+
+-----------------------------------------------------------------------------+
|  Inner_Iter|     Min CFL|     Max CFL|      rms[P]|  Cauchy[CD]|          CD|
+-----------------------------------------------------------------------------+
|        4610|  5.7288e+00|  5.7288e+00|   -9.753080|  3.5336e-06|    0.105748|
|        4620|  3.5471e+01|  3.5471e+01|   -9.757072|  3.4213e-06|    0.105749|
|        4630|  1.8302e+01|  1.8302e+01|   -9.758132|  3.3229e-06|    0.105750|
|        4640|  9.4436e+00|  9.4436e+00|   -9.759563|  3.2294e-06|    0.105752|
|        4650|  4.8727e+00|  4.8727e+00|   -9.759874|  3.1485e-06|    0.105754|
|        4660|  3.0170e+01|  3.0170e+01|   -9.762760|  3.0324e-06|    0.105755|
|        4670|  4.3445e+01|  4.3445e+01|   -9.761870|  3.0014e-06|    0.105758|
|        4680|  4.3445e+01|  4.3445e+01|   -9.765024|  2.9787e-06|    0.105762|
|        4690|  4.3445e+01|  4.3445e+01|   -9.768296|  2.9564e-06|    0.105765|
|        4700|  4.3445e+01|  4.3445e+01|   -9.771539|  2.9344e-06|    0.105768|
|        4710|  4.3445e+01|  4.3445e+01|   -9.774640|  2.9130e-06|    0.105772|
|        4720|  4.3445e+01|  4.3445e+01|   -9.777584|  2.8921e-06|    0.105775|
|        4730|  4.3445e+01|  4.3445e+01|   -9.780749|  2.8710e-06|    0.105778|
|        4740|  4.3445e+01|  4.3445e+01|   -9.784155|  2.8489e-06|    0.105782|
|        4750|  4.3445e+01|  4.3445e+01|   -9.787486|  2.8264e-06|    0.105785|
|        4760|  4.3445e+01|  4.3445e+01|   -9.790497|  2.8043e-06|    0.105788|
|        4770|  4.3445e+01|  4.3445e+01|   -9.793410|  2.7832e-06|    0.105791|
|        4780|  4.3445e+01|  4.3445e+01|   -9.796479|  2.7626e-06|    0.105795|
|        4790|  4.3445e+01|  4.3445e+01|   -9.799733|  2.7420e-06|    0.105798|
|        4800|  4.3445e+01|  4.3445e+01|   -9.803035|  2.7212e-06|    0.105801|
+-----------------------------------------------------------------------+
|        File Writing Summary       |              Filename             |
+-----------------------------------------------------------------------+
|SU2 binary restart                 |restart_flow_G6.dat                |
|Paraview                           |flow_G6.vtu                        |
|Paraview surface                   |surface_flow_G6.vtu                |
+-----------------------------------------------------------------------+
+-----------------------------------------------------------------------------+
|  Inner_Iter|     Min CFL|     Max CFL|      rms[P]|  Cauchy[CD]|          CD|
+-----------------------------------------------------------------------------+
|        4810|  4.3445e+01|  4.3445e+01|   -9.806246|  2.7004e-06|    0.105804|
|        4820|  4.3445e+01|  4.3445e+01|   -9.809331|  2.6796e-06|    0.105807|
|        4830|  4.3445e+01|  4.3445e+01|   -9.812342|  2.6591e-06|    0.105810|
|        4840|  4.3445e+01|  4.3445e+01|   -9.815398|  2.6388e-06|    0.105813|
|        4850|  4.3445e+01|  4.3445e+01|   -9.818594|  2.6765e-06|    0.105816|
|        4860|  4.3445e+01|  4.3445e+01|   -9.821875|  2.7181e-06|    0.105819|
|        4870|  4.3445e+01|  4.3445e+01|   -9.825065|  2.7872e-06|    0.105822|
|        4880|  4.3445e+01|  4.3445e+01|   -9.828072|  2.8424e-06|    0.105825|
|        4890|  4.3445e+01|  4.3445e+01|   -9.831021|  2.8932e-06|    0.105828|
|        4900|  4.3445e+01|  4.3445e+01|   -9.834101|  2.9317e-06|    0.105831|
|        4910|  4.3445e+01|  4.3445e+01|   -9.837363|  3.0057e-06|    0.105834|
|        4920|  4.3445e+01|  4.3445e+01|   -9.840693|  2.9949e-06|    0.105837|
|        4930|  4.3445e+01|  4.3445e+01|   -9.843942|  2.9760e-06|    0.105840|
|        4940|  4.3445e+01|  4.3445e+01|   -9.847039|  2.9568e-06|    0.105843|
|        4950|  4.3445e+01|  4.3445e+01|   -9.850020|  2.9376e-06|    0.105846|
|        4960|  4.3445e+01|  4.3445e+01|   -9.852983|  2.9180e-06|    0.105849|
|        4970|  4.3445e+01|  4.3445e+01|   -9.856022|  2.8983e-06|    0.105852|
|        4980|  4.3445e+01|  4.3445e+01|   -9.859165|  2.8790e-06|    0.105855|
|        4990|  4.3445e+01|  4.3445e+01|   -9.862372|  2.8608e-06|    0.105857|
|        5000|  4.3445e+01|  4.3445e+01|   -9.865570|  2.8435e-06|    0.105860|
+-----------------------------------------------------------------------+
|        File Writing Summary       |              Filename             |
+-----------------------------------------------------------------------+
|SU2 binary restart                 |restart_flow_G6.dat                |
|Paraview                           |flow_G6.vtu                        |
|Paraview surface                   |surface_flow_G6.vtu                |
+-----------------------------------------------------------------------+
+-----------------------------------------------------------------------------+
|  Inner_Iter|     Min CFL|     Max CFL|      rms[P]|  Cauchy[CD]|          CD|
+-----------------------------------------------------------------------------+
|        5010|  4.3445e+01|  4.3445e+01|   -9.868715|  2.8259e-06|    0.105863|
|        5020|  4.3445e+01|  4.3445e+01|   -9.871801|  2.8076e-06|    0.105866|
|        5030|  4.3445e+01|  4.3445e+01|   -9.874852|  2.7889e-06|    0.105868|
|        5040|  4.3445e+01|  4.3445e+01|   -9.877892|  2.7705e-06|    0.105871|
|        5050|  4.3445e+01|  4.3445e+01|   -9.880941|  2.7525e-06|    0.105874|
|        5060|  4.3445e+01|  4.3445e+01|   -9.884008|  2.7348e-06|    0.105876|
|        5070|  4.3445e+01|  4.3445e+01|   -9.887094|  2.7172e-06|    0.105879|
|        5080|  4.3445e+01|  4.3445e+01|   -9.890192|  2.6997e-06|    0.105882|
|        5090|  4.3445e+01|  4.3445e+01|   -9.893284|  2.6822e-06|    0.105884|
|        5100|  4.3445e+01|  4.3445e+01|   -9.896353|  2.6645e-06|    0.105887|
|        5110|  4.3445e+01|  4.3445e+01|   -9.899395|  2.6471e-06|    0.105890|
|        5120|  4.3445e+01|  4.3445e+01|   -9.902420|  2.6299e-06|    0.105892|
|        5130|  4.3445e+01|  4.3445e+01|   -9.905447|  2.6130e-06|    0.105895|
|        5140|  4.3445e+01|  4.3445e+01|   -9.908488|  2.5962e-06|    0.105897|
|        5150|  4.3445e+01|  4.3445e+01|   -9.911541|  2.5793e-06|    0.105900|
|        5160|  4.3445e+01|  4.3445e+01|   -9.914595|  2.5625e-06|    0.105902|
|        5170|  4.3445e+01|  4.3445e+01|   -9.917638|  2.5457e-06|    0.105905|
|        5180|  4.3445e+01|  4.3445e+01|   -9.920667|  2.5291e-06|    0.105907|
|        5190|  4.3445e+01|  4.3445e+01|   -9.923687|  2.5127e-06|    0.105910|
|        5200|  4.3445e+01|  4.3445e+01|   -9.926706|  2.4965e-06|    0.105912|
+-----------------------------------------------------------------------+
|        File Writing Summary       |              Filename             |
+-----------------------------------------------------------------------+
|SU2 binary restart                 |restart_flow_G6.dat                |
|Paraview                           |flow_G6.vtu                        |
|Paraview surface                   |surface_flow_G6.vtu                |
+-----------------------------------------------------------------------+
+-----------------------------------------------------------------------------+
|  Inner_Iter|     Min CFL|     Max CFL|      rms[P]|  Cauchy[CD]|          CD|
+-----------------------------------------------------------------------------+
|        5210|  4.3445e+01|  4.3445e+01|   -9.929730|  2.4803e-06|    0.105915|
|        5220|  4.3445e+01|  4.3445e+01|   -9.932757|  2.4642e-06|    0.105917|
|        5230|  4.3445e+01|  4.3445e+01|   -9.935783|  2.4482e-06|    0.105919|
|        5240|  4.3445e+01|  4.3445e+01|   -9.938804|  2.4323e-06|    0.105922|
|        5250|  4.3445e+01|  4.3445e+01|   -9.941819|  2.4165e-06|    0.105924|
|        5260|  4.3445e+01|  4.3445e+01|   -9.944832|  2.4008e-06|    0.105926|
|        5270|  4.3445e+01|  4.3445e+01|   -9.947844|  2.3852e-06|    0.105929|
|        5280|  4.3445e+01|  4.3445e+01|   -9.950859|  2.3697e-06|    0.105931|
|        5290|  4.3445e+01|  4.3445e+01|   -9.953875|  2.3544e-06|    0.105933|
|        5300|  4.3445e+01|  4.3445e+01|   -9.956892|  2.3391e-06|    0.105936|
|        5310|  4.3445e+01|  4.3445e+01|   -9.959909|  2.3240e-06|    0.105938|
|        5320|  4.3445e+01|  4.3445e+01|   -9.962925|  2.3089e-06|    0.105940|
|        5330|  4.3445e+01|  4.3445e+01|   -9.965940|  2.2939e-06|    0.105942|
|        5340|  4.3445e+01|  4.3445e+01|   -9.968954|  2.2790e-06|    0.105945|
|        5350|  4.3445e+01|  4.3445e+01|   -9.971967|  2.2642e-06|    0.105947|
|        5360|  4.3445e+01|  4.3445e+01|   -9.974982|  2.2495e-06|    0.105949|
|        5370|  4.3445e+01|  4.3445e+01|   -9.977999|  2.2350e-06|    0.105951|
|        5380|  4.3445e+01|  4.3445e+01|   -9.981016|  2.2205e-06|    0.105953|
|        5390|  4.3445e+01|  4.3445e+01|   -9.984032|  2.2060e-06|    0.105956|
|        5400|  4.3445e+01|  4.3445e+01|   -9.987045|  2.1917e-06|    0.105958|
+-----------------------------------------------------------------------+
|        File Writing Summary       |              Filename             |
+-----------------------------------------------------------------------+
|SU2 binary restart                 |restart_flow_G6.dat                |
|Paraview                           |flow_G6.vtu                        |
|Paraview surface                   |surface_flow_G6.vtu                |
+-----------------------------------------------------------------------+
+-----------------------------------------------------------------------------+
|  Inner_Iter|     Min CFL|     Max CFL|      rms[P]|  Cauchy[CD]|          CD|
+-----------------------------------------------------------------------------+
|        5410|  4.3445e+01|  4.3445e+01|   -9.990057|  2.1774e-06|    0.105960|
|        5420|  4.3445e+01|  4.3445e+01|   -9.993068|  2.1633e-06|    0.105962|
|        5430|  4.3445e+01|  4.3445e+01|   -9.996080|  2.1492e-06|    0.105964|
|        5440|  4.3445e+01|  4.3445e+01|   -9.999093|  2.1353e-06|    0.105966|
|        5450|  4.3445e+01|  4.3445e+01|  -10.002106|  2.1214e-06|    0.105968|
|        5460|  4.3445e+01|  4.3445e+01|  -10.005119|  2.1076e-06|    0.105970|
|        5470|  4.3445e+01|  4.3445e+01|  -10.008129|  2.0939e-06|    0.105972|
|        5480|  4.3445e+01|  4.3445e+01|  -10.011137|  2.0802e-06|    0.105974|
|        5490|  4.3445e+01|  4.3445e+01|  -10.014144|  2.0667e-06|    0.105976|
|        5500|  4.3445e+01|  4.3445e+01|  -10.017149|  2.0532e-06|    0.105978|
|        5510|  4.3445e+01|  4.3445e+01|  -10.020155|  2.0398e-06|    0.105980|
|        5520|  4.3445e+01|  4.3445e+01|  -10.023159|  2.0265e-06|    0.105982|
|        5530|  4.3445e+01|  4.3445e+01|  -10.026164|  2.0133e-06|    0.105984|
|        5540|  4.3445e+01|  4.3445e+01|  -10.029166|  2.0002e-06|    0.105986|
|        5550|  4.3445e+01|  4.3445e+01|  -10.032168|  1.9871e-06|    0.105988|
|        5560|  4.3445e+01|  4.3445e+01|  -10.035167|  1.9741e-06|    0.105990|
|        5570|  4.3445e+01|  4.3445e+01|  -10.038165|  1.9612e-06|    0.105992|
|        5580|  4.3445e+01|  4.3445e+01|  -10.041161|  1.9484e-06|    0.105994|
|        5590|  4.3445e+01|  4.3445e+01|  -10.044156|  1.9356e-06|    0.105996|
|        5600|  4.3445e+01|  4.3445e+01|  -10.047149|  1.9230e-06|    0.105998|
+-----------------------------------------------------------------------+
|        File Writing Summary       |              Filename             |
+-----------------------------------------------------------------------+
|SU2 binary restart                 |restart_flow_G6.dat                |
|Paraview                           |flow_G6.vtu                        |
|Paraview surface                   |surface_flow_G6.vtu                |
+-----------------------------------------------------------------------+
+-----------------------------------------------------------------------------+
|  Inner_Iter|     Min CFL|     Max CFL|      rms[P]|  Cauchy[CD]|          CD|
+-----------------------------------------------------------------------------+
|        5610|  4.3445e+01|  4.3445e+01|  -10.050141|  1.9104e-06|    0.106000|
|        5620|  4.3445e+01|  4.3445e+01|  -10.053131|  1.8978e-06|    0.106002|
|        5630|  4.3445e+01|  4.3445e+01|  -10.056120|  1.8854e-06|    0.106003|
|        5640|  4.3445e+01|  4.3445e+01|  -10.059106|  1.8730e-06|    0.106005|
|        5650|  4.3445e+01|  4.3445e+01|  -10.062091|  1.8608e-06|    0.106007|
|        5660|  4.3445e+01|  4.3445e+01|  -10.065075|  1.8486e-06|    0.106009|
|        5670|  4.3445e+01|  4.3445e+01|  -10.068057|  1.8365e-06|    0.106011|
|        5680|  4.3445e+01|  4.3445e+01|  -10.071038|  1.8244e-06|    0.106012|
|        5690|  4.3445e+01|  4.3445e+01|  -10.074017|  1.8124e-06|    0.106014|
|        5700|  4.3445e+01|  4.3445e+01|  -10.076996|  1.8005e-06|    0.106016|
|        5710|  4.3445e+01|  4.3445e+01|  -10.079974|  1.7887e-06|    0.106018|
|        5720|  4.3445e+01|  4.3445e+01|  -10.082949|  1.7770e-06|    0.106019|
|        5730|  4.3445e+01|  4.3445e+01|  -10.085923|  1.7653e-06|    0.106021|
|        5740|  4.3445e+01|  4.3445e+01|  -10.088895|  1.7537e-06|    0.106023|
|        5750|  4.3445e+01|  4.3445e+01|  -10.091867|  1.7422e-06|    0.106025|
|        5760|  4.3445e+01|  4.3445e+01|  -10.094837|  1.7308e-06|    0.106026|
|        5770|  4.3445e+01|  4.3445e+01|  -10.097807|  1.7194e-06|    0.106028|
|        5780|  4.3445e+01|  4.3445e+01|  -10.100777|  1.7081e-06|    0.106030|
|        5790|  4.3445e+01|  4.3445e+01|  -10.103745|  1.6969e-06|    0.106031|
|        5800|  4.3445e+01|  4.3445e+01|  -10.106713|  1.6858e-06|    0.106033|
+-----------------------------------------------------------------------+
|        File Writing Summary       |              Filename             |
+-----------------------------------------------------------------------+
|SU2 binary restart                 |restart_flow_G6.dat                |
|Paraview                           |flow_G6.vtu                        |
|Paraview surface                   |surface_flow_G6.vtu                |
+-----------------------------------------------------------------------+
+-----------------------------------------------------------------------------+
|  Inner_Iter|     Min CFL|     Max CFL|      rms[P]|  Cauchy[CD]|          CD|
+-----------------------------------------------------------------------------+
|        5810|  4.3445e+01|  4.3445e+01|  -10.109679|  1.6747e-06|    0.106035|
|        5820|  4.3445e+01|  4.3445e+01|  -10.112644|  1.6637e-06|    0.106036|
|        5830|  4.3445e+01|  4.3445e+01|  -10.115608|  1.6528e-06|    0.106038|
|        5840|  4.3445e+01|  4.3445e+01|  -10.118571|  1.6419e-06|    0.106039|
|        5850|  4.3445e+01|  4.3445e+01|  -10.121534|  1.6312e-06|    0.106041|
|        5860|  4.3445e+01|  4.3445e+01|  -10.124497|  1.6205e-06|    0.106043|
|        5870|  4.3445e+01|  4.3445e+01|  -10.127459|  1.6098e-06|    0.106044|
|        5880|  4.3445e+01|  4.3445e+01|  -10.130419|  1.5992e-06|    0.106046|
|        5890|  4.3445e+01|  4.3445e+01|  -10.133379|  1.5887e-06|    0.106047|
|        5900|  4.3445e+01|  4.3445e+01|  -10.136338|  1.5783e-06|    0.106049|
|        5910|  4.3445e+01|  4.3445e+01|  -10.139296|  1.5679e-06|    0.106050|
|        5920|  4.3445e+01|  4.3445e+01|  -10.142254|  1.5576e-06|    0.106052|
|        5930|  4.3445e+01|  4.3445e+01|  -10.145211|  1.5474e-06|    0.106053|
|        5940|  4.3445e+01|  4.3445e+01|  -10.148168|  1.5372e-06|    0.106055|
|        5950|  4.3445e+01|  4.3445e+01|  -10.151125|  1.5271e-06|    0.106056|
|        5960|  4.3445e+01|  4.3445e+01|  -10.154082|  1.5171e-06|    0.106058|
|        5970|  4.3445e+01|  4.3445e+01|  -10.157038|  1.5071e-06|    0.106059|
|        5980|  4.3445e+01|  4.3445e+01|  -10.159993|  1.4972e-06|    0.106061|
|        5990|  4.3445e+01|  4.3445e+01|  -10.162947|  1.4874e-06|    0.106062|
|        6000|  4.3445e+01|  4.3445e+01|  -10.165901|  1.4776e-06|    0.106064|
+-----------------------------------------------------------------------+
|        File Writing Summary       |              Filename             |
+-----------------------------------------------------------------------+
|SU2 binary restart                 |restart_flow_G6.dat                |
|Paraview                           |flow_G6.vtu                        |
|Paraview surface                   |surface_flow_G6.vtu                |
+-----------------------------------------------------------------------+
+-----------------------------------------------------------------------------+
|  Inner_Iter|     Min CFL|     Max CFL|      rms[P]|  Cauchy[CD]|          CD|
+-----------------------------------------------------------------------------+
|        6010|  4.3445e+01|  4.3445e+01|  -10.168854|  1.4679e-06|    0.106065|
|        6020|  4.3445e+01|  4.3445e+01|  -10.171807|  1.4583e-06|    0.106067|
|        6030|  4.3445e+01|  4.3445e+01|  -10.174759|  1.4487e-06|    0.106068|
|        6040|  4.3445e+01|  4.3445e+01|  -10.177712|  1.4392e-06|    0.106069|
|        6050|  4.3445e+01|  4.3445e+01|  -10.180664|  1.4298e-06|    0.106071|
|        6060|  4.3445e+01|  4.3445e+01|  -10.183616|  1.4204e-06|    0.106072|
|        6070|  4.3445e+01|  4.3445e+01|  -10.186567|  1.4111e-06|    0.106074|
|        6080|  4.3445e+01|  4.3445e+01|  -10.189517|  1.4019e-06|    0.106075|
|        6090|  4.3445e+01|  4.3445e+01|  -10.192467|  1.3927e-06|    0.106076|
|        6100|  4.3445e+01|  4.3445e+01|  -10.195417|  1.3836e-06|    0.106078|
|        6110|  4.3445e+01|  4.3445e+01|  -10.198367|  1.3745e-06|    0.106079|
|        6120|  4.3445e+01|  4.3445e+01|  -10.201317|  1.3655e-06|    0.106080|
|        6130|  4.3445e+01|  4.3445e+01|  -10.204267|  1.3566e-06|    0.106082|
|        6140|  4.3445e+01|  4.3445e+01|  -10.207216|  1.3477e-06|    0.106083|
|        6150|  4.3445e+01|  4.3445e+01|  -10.210165|  1.3389e-06|    0.106084|
|        6160|  4.3445e+01|  4.3445e+01|  -10.213113|  1.3301e-06|    0.106086|
|        6170|  4.3445e+01|  4.3445e+01|  -10.216062|  1.3215e-06|    0.106087|
|        6180|  4.3445e+01|  4.3445e+01|  -10.219010|  1.3128e-06|    0.106088|
|        6190|  4.3445e+01|  4.3445e+01|  -10.221959|  1.3042e-06|    0.106090|
|        6200|  4.3445e+01|  4.3445e+01|  -10.224907|  1.2957e-06|    0.106091|
+-----------------------------------------------------------------------+
|        File Writing Summary       |              Filename             |
+-----------------------------------------------------------------------+
|SU2 binary restart                 |restart_flow_G6.dat                |
|Paraview                           |flow_G6.vtu                        |
|Paraview surface                   |surface_flow_G6.vtu                |
+-----------------------------------------------------------------------+
+-----------------------------------------------------------------------------+
|  Inner_Iter|     Min CFL|     Max CFL|      rms[P]|  Cauchy[CD]|          CD|
+-----------------------------------------------------------------------------+
|        6210|  4.3445e+01|  4.3445e+01|  -10.227856|  1.2873e-06|    0.106092|
|        6220|  4.3445e+01|  4.3445e+01|  -10.230806|  1.2789e-06|    0.106093|
|        6230|  4.3445e+01|  4.3445e+01|  -10.233755|  1.2705e-06|    0.106095|
|        6240|  4.3445e+01|  4.3445e+01|  -10.236706|  1.2622e-06|    0.106096|
|        6250|  4.3445e+01|  4.3445e+01|  -10.239656|  1.2540e-06|    0.106097|
|        6260|  4.3445e+01|  4.3445e+01|  -10.242606|  1.2458e-06|    0.106098|
|        6270|  4.3445e+01|  4.3445e+01|  -10.245556|  1.2377e-06|    0.106099|
|        6280|  4.3445e+01|  4.3445e+01|  -10.248506|  1.2296e-06|    0.106101|
|        6290|  4.3445e+01|  4.3445e+01|  -10.251455|  1.2216e-06|    0.106102|
|        6300|  4.3445e+01|  4.3445e+01|  -10.254406|  1.2136e-06|    0.106103|
|        6310|  4.3445e+01|  4.3445e+01|  -10.257357|  1.2057e-06|    0.106104|
|        6320|  4.3445e+01|  4.3445e+01|  -10.260309|  1.1978e-06|    0.106105|
|        6330|  4.3445e+01|  4.3445e+01|  -10.263261|  1.1900e-06|    0.106107|
|        6340|  4.3445e+01|  4.3445e+01|  -10.266213|  1.1823e-06|    0.106108|
|        6350|  4.3445e+01|  4.3445e+01|  -10.269164|  1.1745e-06|    0.106109|
|        6360|  4.3445e+01|  4.3445e+01|  -10.272116|  1.1669e-06|    0.106110|
|        6370|  4.3445e+01|  4.3445e+01|  -10.275068|  1.1592e-06|    0.106111|
|        6380|  4.3445e+01|  4.3445e+01|  -10.278020|  1.1517e-06|    0.106112|
|        6390|  4.3445e+01|  4.3445e+01|  -10.280972|  1.1441e-06|    0.106113|
|        6400|  4.3445e+01|  4.3445e+01|  -10.283924|  1.1367e-06|    0.106115|
+-----------------------------------------------------------------------+
|        File Writing Summary       |              Filename             |
+-----------------------------------------------------------------------+
|SU2 binary restart                 |restart_flow_G6.dat                |
|Paraview                           |flow_G6.vtu                        |
|Paraview surface                   |surface_flow_G6.vtu                |
+-----------------------------------------------------------------------+
+-----------------------------------------------------------------------------+
|  Inner_Iter|     Min CFL|     Max CFL|      rms[P]|  Cauchy[CD]|          CD|
+-----------------------------------------------------------------------------+
|        6410|  4.3445e+01|  4.3445e+01|  -10.286876|  1.1292e-06|    0.106116|
|        6420|  4.3445e+01|  4.3445e+01|  -10.289827|  1.1218e-06|    0.106117|
|        6430|  4.3445e+01|  4.3445e+01|  -10.292779|  1.1145e-06|    0.106118|
|        6440|  4.3445e+01|  4.3445e+01|  -10.295730|  1.1072e-06|    0.106119|
|        6450|  4.3445e+01|  4.3445e+01|  -10.298680|  1.1000e-06|    0.106120|
|        6460|  4.3445e+01|  4.3445e+01|  -10.301630|  1.0928e-06|    0.106121|
|        6470|  4.3445e+01|  4.3445e+01|  -10.304579|  1.0856e-06|    0.106122|
|        6480|  4.3445e+01|  4.3445e+01|  -10.307527|  1.0785e-06|    0.106123|
|        6490|  4.3445e+01|  4.3445e+01|  -10.310475|  1.0714e-06|    0.106124|
|        6500|  4.3445e+01|  4.3445e+01|  -10.313421|  1.0644e-06|    0.106125|
|        6510|  4.3445e+01|  4.3445e+01|  -10.316367|  1.0574e-06|    0.106126|
|        6520|  4.3445e+01|  4.3445e+01|  -10.319312|  1.0504e-06|    0.106127|
|        6530|  4.3445e+01|  4.3445e+01|  -10.322257|  1.0435e-06|    0.106128|
|        6540|  4.3445e+01|  4.3445e+01|  -10.325200|  1.0367e-06|    0.106129|
|        6550|  4.3445e+01|  4.3445e+01|  -10.328143|  1.0299e-06|    0.106130|
|        6560|  4.3445e+01|  4.3445e+01|  -10.331084|  1.0231e-06|    0.106131|
|        6570|  4.3445e+01|  4.3445e+01|  -10.334024|  1.0164e-06|    0.106132|
|        6580|  4.3445e+01|  4.3445e+01|  -10.336963|  1.0097e-06|    0.106133|
|        6590|  4.3445e+01|  4.3445e+01|  -10.339901|  1.0030e-06|    0.106134|
|        6595|  4.3445e+01|  4.3445e+01|  -10.341370|  9.9972e-07|    0.106135|

----------------------------- Solver Exit -------------------------------
All convergence criteria satisfied.
+-----------------------------------------------------------------------+
|      Convergence Field     |     Value    |   Criterion  |  Converged |
+-----------------------------------------------------------------------+
|                      rms[P]|      -10.3414|          < -9|         Yes|
|                  Cauchy[CD]|   9.99721e-07|       < 1e-06|         Yes|
+-----------------------------------------------------------------------+
-------------------------------------------------------------------------
+-----------------------------------------------------------------------+
|        File Writing Summary       |              Filename             |
+-----------------------------------------------------------------------+
|SU2 binary restart                 |restart_flow_G6.dat                |
|Paraview                           |flow_G6.vtu                        |
|Paraview surface                   |surface_flow_G6.vtu                |
+-----------------------------------------------------------------------+

------------------------- Solver Postprocessing -------------------------
Deleted CNumerics container.
Deleted CIntegration container.
Deleted CSolver container.
Deleted CIteration container.
Deleted CInterface container.
Deleted CGeometry container.
Deleted CFreeFormDefBox class.
Deleted CSurfaceMovement class.
Deleted CVolumetricMovement class.
Deleted CConfig container.
Deleted nInst container.
Deleted COutput class.
-------------------------------------------------------------------------

------------------------- Exit Success (SU2_CFD) ------------------------

