
-------------------------------------------------------------------------
|    ___ _   _ ___                                                      |
|   / __| | | |_  )   Release 7.4.0 "Blackbird"                         |
|   \__ \ |_| |/ /                                                      |
|   |___/\___//___|   Suite (Computational Fluid Dynamics Code)         |
|                                                                       |
-------------------------------------------------------------------------
| SU2 Project Website: https://su2code.github.io                        |
|                                                                       |
| The SU2 Project is maintained by the SU2 Foundation                   |
| (http://su2foundation.org)                                            |
-------------------------------------------------------------------------
| Copyright 2012-2022, SU2 Contributors                                 |
|                                                                       |
| SU2 is free software; you can redistribute it and/or                  |
| modify it under the terms of the GNU Lesser General Public            |
| License as published by the Free Software Foundation; either          |
| version 2.1 of the License, or (at your option) any later version.    |
|                                                                       |
| SU2 is distributed in the hope that it will be useful,                |
| but WITHOUT ANY WARRANTY; without even the implied warranty of        |
| MERCHANTABILITY or FITNESS FOR A PARTICULAR PURPOSE. See the GNU      |
| Lesser General Public License for more details.                       |
|                                                                       |
| You should have received a copy of the GNU Lesser General Public      |
| License along with SU2. If not, see <http://www.gnu.org/licenses/>.   |
-------------------------------------------------------------------------

Parsing config file for zone 0

----------------- Physical Case Definition ( Zone 0 ) -------------------
Incompressible RANS equations.
Turbulence model: Menter's k-omega SST-2003m with no production modification.
Hybrid RANS/LES: No Hybrid RANS/LES
Reading and writing binary SU2 native restart files.
Read flow solution from: ../../O1/case_A2/restart_flow_aoa2.dat.
Non-Dimensional simulation using intialization values.
The reference area is 1 m^2.
The semi-span will be computed using the max y(3D) value.
The reference length is 1.00898 m.
Reference origin for moment evaluation is (-0.756, 0, 0).
Surface(s) where the force coefficients are evaluated: AIRFOIL.

Surface(s) plotted in the output file: AIRFOIL.
Input mesh file name: ../meshG5/meshG5.su2

--------------- Space Numerical Integration ( Zone 0 ) ------------------
Flux difference splitting (FDS) upwind scheme for the flow inviscid terms.
Second order integration in space, with slope limiter.
Venkatakrishnan slope-limiting method, with constant: 0.056.
The reference element size is: 1. 
Average of gradients with correction (viscous flow terms).
Average of gradients with correction (viscous turbulence terms).
Gradient for upwind reconstruction: unweighted Least-Squares.
Gradient for viscous and source terms: Green-Gauss.

--------------- Time Numerical Integration  ( Zone 0 ) ------------------
Local time stepping (steady state simulation).
Euler implicit method for the flow equations.
FGMRES is used for solving the linear system.
Using a ILU(0) preconditioning.
Convergence criteria of the linear solver: 1e-06.
Max number of linear iterations: 10.
CFL adaptation. Factor down: 0.1, factor up: 1.2,
                lower limit: 1, upper limit: 1000,
                acceptable linear residual: 0.001.
Courant-Friedrichs-Lewy number:        2
Euler implicit time integration for the turbulence model.

------------------ Convergence Criteria  ( Zone 0 ) ---------------------
Maximum number of solver subiterations: 9999.
Begin convergence monitoring at iteration 10.
Residual minimum value: 1e-9.
Cauchy series min. value: 1e-06.
Number of Cauchy elements: 250.
Begin windowed time average at iteration 0.

-------------------- Output Information ( Zone 0 ) ----------------------
File writing frequency: 
+------------------------------------+
|                     File| Frequency|
+------------------------------------+
|                  RESTART|       200|
|                 PARAVIEW|       200|
|         SURFACE_PARAVIEW|       200|
+------------------------------------+
Writing the convergence history file every 1 inner iterations.
Writing the screen convergence history every 10 inner iterations.
The tabular file format is CSV (.csv).
Convergence history file name: history_aoa2.
Forces breakdown file name: forces_breakdown.dat.
Surface file name: surface_flow_aoa2.
Volume file name: flow_aoa2.
Restart file name: restart_flow_aoa2.dat.

------------- Config File Boundary Information ( Zone 0 ) ---------------
+-----------------------------------------------------------------------+
|                        Marker Type|                        Marker Name|
+-----------------------------------------------------------------------+
|                          Far-field|                           FARFIELD|
+-----------------------------------------------------------------------+
|                     Heat flux wall|                            AIRFOIL|
+-----------------------------------------------------------------------+

-------------------- Output Preprocessing ( Zone 0 ) --------------------

WARNING: SURFACE_PRESSURE_DROP can only be computed for at least 2 surfaces (outlet, inlet, ...)

Screen output fields: INNER_ITER, MIN_CFL, MAX_CFL, RMS_PRESSURE, CAUCHY_DRAG, DRAG
History output group(s): INNER_ITER, MIN_CFL, MAX_CFL, RMS_RES, LIFT, DRAG, MOMENT_Z, CAUCHY
Convergence field(s): RMS_PRESSURE, DRAG
Warning: No (valid) fields chosen for time convergence monitoring. Time convergence monitoring inactive.
Volume output fields: COORDINATES, SOLUTION, PRIMITIVE, RESIDUAL, MESH_QUALITY

------------------- Geometry Preprocessing ( Zone 0 ) -------------------
Two dimensional problem.
361479 grid points before partitioning.
360180 volume elements before partitioning.
2 surface markers.
724 boundary elements in index 0 (Marker = AIRFOIL).
1874 boundary elements in index 1 (Marker = FARFIELD).
Executing the partitioning functions.
Building the graph adjacency structure.
Calling ParMETIS... graph partitioning complete (4050 edge cuts).
Distributing ParMETIS coloring.
Rebalancing vertices.
Rebalancing volume element connectivity.
Rebalancing markers and surface elements.
369602 vertices including ghost points. 
364230 interior elements including halo cells. 
364230 quadrilaterals.
Establishing MPI communication patterns.
Setting point connectivity.
Renumbering points (Reverse Cuthill McKee Ordering).
Recomputing point connectivity.
Setting element connectivity.
Checking the numerical grid orientation.
All volume elements are correctly orientend.
There has been a re-orientation of 1305 LINE surface elements.
Identifying edges and vertices.
Setting the control volume structure.
Area of the computational grid: 103207.
Searching for the closest normal neighbors to the surfaces.
Storing a mapping from global to local point index.
Compute the surface curvature.
Max K: 227502. Mean K: 205.598. Standard deviation K: 4719.73.
Checking for periodicity.
Computing mesh quality statistics for the dual control volumes.
+--------------------------------------------------------------+
|           Mesh Quality Metric|        Minimum|        Maximum|
+--------------------------------------------------------------+
|    Orthogonality Angle (deg.)|        75.9136|             90|
|     CV Face Area Aspect Ratio|        1.00002|    3.17894e+06|
|           CV Sub-Volume Ratio|              1|         387.07|
+--------------------------------------------------------------+
Finding max control volume width.
Communicating number of neighbors.
Wetted area = 2.0597 m.
Area projection in the x-plane = 0.121116 m, y-plane = 1.00881 m.
Max. coordinate in the x-direction = 1.00898 m, y-direction = 0.0759837 m.
Min. coordinate in the x-direction = 4.86614e-06 m, y-direction = -0.0451345 m.
Computing wall distances.

-------------------- Solver Preprocessing ( Zone 0 ) --------------------
 Warning: There is no restart file (flow.meta).
 Computation will continue without updating metadata parameters.
Incompressible flow: rho_ref, vel_ref, and temp_ref
are based on the initial values, p_ref = rho_ref*vel_ref^2.
Force coefficients computed using initial values.
The reference area for force coeffs. is 1 m^2.
The reference length for force coeffs. is 1.00898 m.
The pressure is decomposed into thermodynamic and dynamic components.
The initial value of the dynamic pressure is 0.
Mach number: 0.0276747, computed using the Bulk modulus.
For external flows, the initial state is imposed at the far-field.
Angle of attack (deg): 1.99998, computed using the initial velocity.
Side slip angle (deg): 0, computed using the initial velocity.
Reynolds number per meter: 595000, computed using initial values.
Reynolds number is a byproduct of inputs only (not used internally).
SI units only. The grid should be dimensional (meters).
No energy equation.

-- Models:
+------------------------------------------------------------------------------+
|          Viscosity Model|        Conductivity Model|              Fluid Model|
+------------------------------------------------------------------------------+
|       CONSTANT_VISCOSITY|          CONSTANT_PRANDTL|         CONSTANT_DENSITY|
+------------------------------------------------------------------------------+
-- Fluid properties:
+------------------------------------------------------------------------------+
|                  Name|    Dim. value|    Ref. value|      Unit|Non-dim. value|
+------------------------------------------------------------------------------+
|             Viscosity|      1.92e-05|        11.424|   N.s/m^2|   1.68067e-06|
+------------------------------------------------------------------------------+
|        Prandtl (Lam.)|             -|             -|         -|          0.72|
|       Prandtl (Turb.)|             -|             -|         -|           0.9|
+------------------------------------------------------------------------------+
|          Bulk Modulus|        142000|             1|        Pa|        142000|
+------------------------------------------------------------------------------+
-- Initial and free-stream conditions:
+------------------------------------------------------------------------------+
|                  Name|    Dim. value|    Ref. value|      Unit|Non-dim. value|
+------------------------------------------------------------------------------+
|      Dynamic Pressure|             0|       108.756|        Pa|             0|
|        Total Pressure|       54.3782|       108.756|        Pa|           0.5|
|               Density|           1.2|           1.2|    kg/m^3|             1|
|            Velocity-X|        9.5142|          9.52|       m/s|      0.999391|
|            Velocity-Y|       0.33224|          9.52|       m/s|     0.0348992|
|    Velocity Magnitude|          9.52|          9.52|       m/s|             1|
+------------------------------------------------------------------------------+
|             Viscosity|      1.92e-05|        11.424|   N.s/m^2|   1.68067e-06|
|          Conductivity|             -|       3.59313|   W/m^2.K|             -|
|     Turb. Kin. Energy|       1.35946|       90.6304|   m^2/s^2|         0.015|
|     Spec. Dissipation|        8496.6|          9.52|       1/s|         892.5|
+------------------------------------------------------------------------------+
|           Mach Number|             -|             -|         -|     0.0276747|
|       Reynolds Number|             -|             -|         -|        595000|
+------------------------------------------------------------------------------+
Initialize Jacobian structure (Navier-Stokes). MG level: 0.
Initialize Jacobian structure (SST model).

------------------- Numerics Preprocessing ( Zone 0 ) -------------------

----------------- Integration Preprocessing ( Zone 0 ) ------------------

------------------- Iteration Preprocessing ( Zone 0 ) ------------------
Euler/Navier-Stokes/RANS fluid iteration.

------------------------------ Begin Solver -----------------------------

Simulation Run using the Single-zone Driver
+-----------------------------------------------------------------------------+
|  Inner_Iter|     Min CFL|     Max CFL|      rms[P]|  Cauchy[CD]|          CD|
+-----------------------------------------------------------------------------+
|           0|  2.4000e+00|  2.4000e+00|   -9.026905|  1.0000e+00|    0.004978|
|          10|  1.4860e+01|  1.4860e+01|   -5.315768|  2.0424e-03|    0.007237|
|          20|  9.2010e+01|  9.2010e+01|   -5.895615|  2.4314e-03|    0.008273|
|          30|  4.7475e+01|  4.7475e+01|   -6.106383|  2.7679e-03|    0.015797|
|          40|  2.4496e+01|  2.4496e+01|   -6.113536|  2.8336e-03|    0.014153|
|          50|  1.2639e+01|  1.2639e+01|   -6.136799|  2.9499e-03|    0.011245|
|          60|  7.8260e+01|  7.8260e+01|   -6.144103|  3.0051e-03|    0.009867|
|          70|  4.0381e+01|  4.0381e+01|   -6.143271|  3.0467e-03|    0.008825|
|          80|  2.0836e+01|  2.0836e+01|   -6.149031|  3.0539e-03|    0.008652|
|          90|  1.0751e+01|  1.0751e+01|   -6.163985|  3.0618e-03|    0.008566|
|         100|  6.6565e+01|  6.6565e+01|   -6.166685|  3.0694e-03|    0.008671|
|         110|  3.4346e+01|  3.4346e+01|   -6.177320|  3.0884e-03|    0.009147|
|         120|  1.7722e+01|  1.7722e+01|   -6.203607|  3.1095e-03|    0.009672|
|         130|  7.6201e+01|  7.6201e+01|   -6.237588|  3.1235e-03|    0.010023|
|         140|  1.8961e+01|  1.8961e+01|   -6.249869|  3.1273e-03|    0.010044|
|         150|  9.7836e+00|  9.7836e+00|   -6.294856|  3.1339e-03|    0.009881|
|         160|  6.0577e+01|  6.0577e+01|   -6.303076|  3.1376e-03|    0.009788|
|         170|  7.2693e+00|  7.2693e+00|   -6.378544|  3.1450e-03|    0.009964|
|         180|  4.5010e+01|  4.5010e+01|   -6.386655|  3.1493e-03|    0.010071|
|         190|  1.9353e+01|  1.9353e+01|   -6.422331|  3.1613e-03|    0.010371|
|         200|  6.9346e+01|  6.9346e+01|   -6.449236|  3.1778e-03|    0.010782|
+-----------------------------------------------------------------------+
|        File Writing Summary       |              Filename             |
+-----------------------------------------------------------------------+
|SU2 binary restart                 |restart_flow_aoa2.dat              |
|Paraview                           |flow_aoa2.vtu                      |
|Paraview surface                   |surface_flow_aoa2.vtu              |
+-----------------------------------------------------------------------+
+-----------------------------------------------------------------------------+
|  Inner_Iter|     Min CFL|     Max CFL|      rms[P]|  Cauchy[CD]|          CD|
+-----------------------------------------------------------------------------+
|         210|  3.5781e+01|  3.5781e+01|   -6.460269|  3.1845e-03|    0.010951|
|         220|  1.8462e+01|  1.8462e+01|   -6.474720|  3.1928e-03|    0.011159|
|         230|  9.5261e+00|  9.5261e+00|   -6.501050|  3.1966e-03|    0.011139|
|         240|  5.8983e+01|  5.8983e+01|   -6.518869|  3.2057e-03|    0.010912|
|         250|  3.0434e+01|  3.0434e+01|   -6.546129|  3.2130e-03|    0.010727|
|         260|  1.5703e+01|  1.5703e+01|   -6.579952|  1.1767e-03|    0.010576|
|         270|  8.1026e+00|  8.1026e+00|   -6.627816|  7.9250e-04|    0.010548|
|         280|  5.0169e+01|  5.0169e+01|   -6.662775|  4.6423e-04|    0.010752|
|         290|  1.7976e+01|  1.7976e+01|   -6.736766|  4.2424e-04|    0.011396|
|         300|  9.2755e+00|  9.2755e+00|   -6.735109|  3.1779e-04|    0.011593|
|         310|  5.7431e+01|  5.7431e+01|   -6.764350|  2.7607e-04|    0.011257|
|         320|  2.0579e+01|  2.0579e+01|   -6.778605|  2.3978e-04|    0.011208|
|         330|  6.1447e+01|  6.1447e+01|   -6.783886|  2.3486e-04|    0.011228|
|         340|  1.8348e+01|  1.8348e+01|   -6.793806|  2.3705e-04|    0.011482|
|         350|  9.4672e+00|  9.4672e+00|   -6.805113|  2.4538e-04|    0.011881|
|         360|  5.8619e+01|  5.8619e+01|   -6.811217|  2.2978e-04|    0.011966|
|         370|  1.7503e+01|  1.7503e+01|   -6.824322|  2.1300e-04|    0.011871|
|         380|  9.0314e+00|  9.0314e+00|   -6.814685|  2.0291e-04|    0.011772|
|         390|  5.5920e+01|  5.5920e+01|   -6.806048|  2.0236e-04|    0.011689|
|         400|  2.8853e+01|  2.8853e+01|   -6.804855|  2.0609e-04|    0.011433|
+-----------------------------------------------------------------------+
|        File Writing Summary       |              Filename             |
+-----------------------------------------------------------------------+
|SU2 binary restart                 |restart_flow_aoa2.dat              |
|Paraview                           |flow_aoa2.vtu                      |
|Paraview surface                   |surface_flow_aoa2.vtu              |
+-----------------------------------------------------------------------+
+-----------------------------------------------------------------------------+
|  Inner_Iter|     Min CFL|     Max CFL|      rms[P]|  Cauchy[CD]|          CD|
+-----------------------------------------------------------------------------+
|         410|  7.1797e+01|  7.1797e+01|   -6.794557|  2.1693e-04|    0.011100|
|         420|  3.0871e+01|  3.0871e+01|   -6.793119|  2.1441e-04|    0.011224|
|         430|  7.6817e+01|  7.6817e+01|   -6.794261|  2.1291e-04|    0.011242|
|         440|  1.5929e+01|  1.5929e+01|   -6.794323|  2.1006e-04|    0.011470|
|         450|  8.2189e+00|  8.2189e+00|   -6.799404|  2.1213e-04|    0.011933|
|         460|  5.1598e+00|  5.1598e+00|   -6.799789|  2.0649e-04|    0.011961|
|         470|  1.0000e+00|  1.0000e+00|   -6.800306|  2.0053e-04|    0.012020|
|         480|  1.0000e+00|  1.0000e+00|   -6.800352|  1.9710e-04|    0.012027|
|         490|  1.0000e+00|  1.0000e+00|   -6.800429|  1.8830e-04|    0.012034|
|         500|  1.0000e+00|  1.0000e+00|   -6.800550|  1.8119e-04|    0.012041|
|         510|  1.0000e+00|  1.0000e+00|   -6.800692|  1.7540e-04|    0.012047|
|         520|  1.0000e+00|  1.0000e+00|   -6.800847|  1.7077e-04|    0.012053|
|         530|  1.0000e+00|  1.0000e+00|   -6.801010|  1.6285e-04|    0.012059|
|         540|  1.0000e+00|  1.0000e+00|   -6.801181|  1.3727e-04|    0.012064|
|         550|  1.0000e+00|  1.0000e+00|   -6.801354|  1.2762e-04|    0.012069|
|         560|  1.0000e+00|  1.0000e+00|   -6.801522|  1.1437e-04|    0.012073|
|         570|  1.0000e+00|  1.0000e+00|   -6.801692|  1.0914e-04|    0.012077|
|         580|  1.0000e+00|  1.0000e+00|   -6.801862|  1.0709e-04|    0.012081|
|         590|  1.0000e+00|  1.0000e+00|   -6.802030|  9.7091e-05|    0.012084|
|         600|  1.0000e+00|  1.0000e+00|   -6.802199|  8.1245e-05|    0.012087|
+-----------------------------------------------------------------------+
|        File Writing Summary       |              Filename             |
+-----------------------------------------------------------------------+
|SU2 binary restart                 |restart_flow_aoa2.dat              |
|Paraview                           |flow_aoa2.vtu                      |
|Paraview surface                   |surface_flow_aoa2.vtu              |
+-----------------------------------------------------------------------+
+-----------------------------------------------------------------------------+
|  Inner_Iter|     Min CFL|     Max CFL|      rms[P]|  Cauchy[CD]|          CD|
+-----------------------------------------------------------------------------+
|         610|  1.0000e+00|  1.0000e+00|   -6.802362|  7.7928e-05|    0.012089|
|         620|  1.0000e+00|  1.0000e+00|   -6.802520|  7.3776e-05|    0.012091|
|         630|  1.0000e+00|  1.0000e+00|   -6.802674|  6.9911e-05|    0.012093|
|         640|  1.0000e+00|  1.0000e+00|   -6.802828|  6.6649e-05|    0.012094|
|         650|  1.0000e+00|  1.0000e+00|   -6.802980|  5.6430e-05|    0.012095|
|         660|  1.0000e+00|  1.0000e+00|   -6.803131|  4.1926e-05|    0.012096|
|         670|  1.0000e+00|  1.0000e+00|   -6.803280|  3.6964e-05|    0.012096|
|         680|  1.0000e+00|  1.0000e+00|   -6.803424|  3.4178e-05|    0.012095|
|         690|  1.0000e+00|  1.0000e+00|   -6.803563|  2.5073e-05|    0.012095|
|         700|  1.0000e+00|  1.0000e+00|   -6.803701|  6.5940e-06|    0.012094|
|         710|  1.0000e+00|  1.0000e+00|   -6.803839|  5.5349e-06|    0.012092|
|         720|  1.0000e+00|  1.0000e+00|   -6.803977|  3.2497e-06|    0.012090|
|         730|  1.0000e+00|  1.0000e+00|   -6.804130|  3.0519e-06|    0.012088|
|         740|  1.0000e+00|  1.0000e+00|   -6.804259|  2.8774e-06|    0.012085|
|         750|  1.0000e+00|  1.0000e+00|   -6.804388|  2.7329e-06|    0.012082|
|         760|  1.0000e+00|  1.0000e+00|   -6.804511|  2.6187e-06|    0.012079|
|         770|  1.0000e+00|  1.0000e+00|   -6.804631|  2.5350e-06|    0.012075|
|         780|  1.0000e+00|  1.0000e+00|   -6.804750|  2.4821e-06|    0.012070|
|         790|  2.4883e+00|  2.4883e+00|   -6.804886|  2.5072e-06|    0.012065|
|         800|  1.0000e+00|  1.0000e+00|   -6.805543|  3.3033e-06|    0.012040|
+-----------------------------------------------------------------------+
|        File Writing Summary       |              Filename             |
+-----------------------------------------------------------------------+
|SU2 binary restart                 |restart_flow_aoa2.dat              |
|Paraview                           |flow_aoa2.vtu                      |
|Paraview surface                   |surface_flow_aoa2.vtu              |
+-----------------------------------------------------------------------+
+-----------------------------------------------------------------------------+
|  Inner_Iter|     Min CFL|     Max CFL|      rms[P]|  Cauchy[CD]|          CD|
+-----------------------------------------------------------------------------+
|         810|  1.0000e+00|  1.0000e+00|   -6.805576|  3.3896e-06|    0.012034|
|         820|  1.0000e+00|  1.0000e+00|   -6.805638|  3.5097e-06|    0.012027|
|         830|  1.0000e+00|  1.0000e+00|   -6.805713|  3.6521e-06|    0.012019|
|         840|  1.0000e+00|  1.0000e+00|   -6.805789|  3.8215e-06|    0.012012|
|         850|  1.0000e+00|  1.0000e+00|   -6.805868|  4.0175e-06|    0.012004|
|         860|  1.0000e+00|  1.0000e+00|   -6.805948|  4.2395e-06|    0.011996|
|         870|  1.0000e+00|  1.0000e+00|   -6.806032|  4.4868e-06|    0.011988|
|         880|  1.0000e+00|  1.0000e+00|   -6.806121|  4.7583e-06|    0.011979|
|         890|  1.0000e+00|  1.0000e+00|   -6.806213|  5.0531e-06|    0.011971|
|         900|  1.0000e+00|  1.0000e+00|   -6.806303|  5.3704e-06|    0.011962|
|         910|  1.0000e+00|  1.0000e+00|   -6.806390|  5.7094e-06|    0.011953|
|         920|  1.0000e+00|  1.0000e+00|   -6.806479|  6.0685e-06|    0.011944|
|         930|  1.0000e+00|  1.0000e+00|   -6.806569|  6.4250e-06|    0.011935|
|         940|  1.7280e+00|  1.7280e+00|   -6.806664|  6.7936e-06|    0.011925|
|         950|  1.0000e+00|  1.0000e+00|   -6.806782|  7.1941e-06|    0.011914|
|         960|  2.0736e+00|  2.0736e+00|   -6.806881|  7.5658e-06|    0.011903|
|         970|  1.0000e+00|  1.0000e+00|   -6.807170|  8.4286e-06|    0.011880|
|         980|  1.0000e+00|  1.0000e+00|   -6.807244|  8.7069e-06|    0.011870|
|         990|  1.0000e+00|  1.0000e+00|   -6.807319|  8.9812e-06|    0.011860|
|        1000|  1.0000e+00|  1.0000e+00|   -6.807400|  9.2393e-06|    0.011851|
+-----------------------------------------------------------------------+
|        File Writing Summary       |              Filename             |
+-----------------------------------------------------------------------+
|SU2 binary restart                 |restart_flow_aoa2.dat              |
|Paraview                           |flow_aoa2.vtu                      |
|Paraview surface                   |surface_flow_aoa2.vtu              |
+-----------------------------------------------------------------------+
+-----------------------------------------------------------------------------+
|  Inner_Iter|     Min CFL|     Max CFL|      rms[P]|  Cauchy[CD]|          CD|
+-----------------------------------------------------------------------------+
|        1010|  1.0000e+00|  1.0000e+00|   -6.807484|  9.4808e-06|    0.011841|
|        1020|  1.0000e+00|  1.0000e+00|   -6.807565|  9.7050e-06|    0.011832|
|        1030|  1.0000e+00|  1.0000e+00|   -6.807646|  9.9191e-06|    0.011823|
|        1040|  1.0000e+00|  1.0000e+00|   -6.807761|  1.0278e-05|    0.011808|
|        1050|  5.1598e+00|  5.1598e+00|   -6.807955|  1.0085e-05|    0.011788|
|        1060|  1.0000e+00|  1.0000e+00|   -6.808220|  1.0733e-05|    0.011765|
|        1070|  1.0000e+00|  1.0000e+00|   -6.808269|  1.0797e-05|    0.011757|
|        1080|  1.0000e+00|  1.0000e+00|   -6.808309|  1.0848e-05|    0.011748|
|        1090|  1.0000e+00|  1.0000e+00|   -6.808357|  1.0881e-05|    0.011740|
|        1100|  1.0000e+00|  1.0000e+00|   -6.808409|  1.0897e-05|    0.011732|
|        1110|  1.0000e+00|  1.0000e+00|   -6.808460|  1.0895e-05|    0.011724|
|        1120|  1.0000e+00|  1.0000e+00|   -6.808507|  1.0877e-05|    0.011716|
|        1130|  1.0000e+00|  1.0000e+00|   -6.808554|  1.0842e-05|    0.011708|
|        1140|  1.0000e+00|  1.0000e+00|   -6.808600|  1.0791e-05|    0.011701|
|        1150|  1.0000e+00|  1.0000e+00|   -6.808647|  1.0724e-05|    0.011694|
|        1160|  1.0000e+00|  1.0000e+00|   -6.808691|  1.0643e-05|    0.011687|
|        1170|  1.0000e+00|  1.0000e+00|   -6.808733|  1.0546e-05|    0.011680|
|        1180|  1.0000e+00|  1.0000e+00|   -6.808773|  1.0435e-05|    0.011674|
|        1190|  1.0000e+00|  1.0000e+00|   -6.808812|  1.0286e-05|    0.011668|
|        1200|  1.0000e+00|  1.0000e+00|   -6.808846|  1.0079e-05|    0.011662|
+-----------------------------------------------------------------------+
|        File Writing Summary       |              Filename             |
+-----------------------------------------------------------------------+
|SU2 binary restart                 |restart_flow_aoa2.dat              |
|Paraview                           |flow_aoa2.vtu                      |
|Paraview surface                   |surface_flow_aoa2.vtu              |
+-----------------------------------------------------------------------+
+-----------------------------------------------------------------------------+
|  Inner_Iter|     Min CFL|     Max CFL|      rms[P]|  Cauchy[CD]|          CD|
+-----------------------------------------------------------------------------+
|        1210|  1.0000e+00|  1.0000e+00|   -6.808876|  9.8746e-06|    0.011656|
|        1220|  1.0000e+00|  1.0000e+00|   -6.808903|  9.1527e-06|    0.011651|
|        1230|  1.0000e+00|  1.0000e+00|   -6.808928|  8.9749e-06|    0.011646|
|        1240|  1.0000e+00|  1.0000e+00|   -6.808953|  8.7856e-06|    0.011641|
|        1250|  1.0000e+00|  1.0000e+00|   -6.808972|  8.5851e-06|    0.011636|
|        1260|  1.0000e+00|  1.0000e+00|   -6.808986|  8.3734e-06|    0.011632|
|        1270|  1.0000e+00|  1.0000e+00|   -6.808995|  8.1507e-06|    0.011628|
|        1280|  1.0000e+00|  1.0000e+00|   -6.809000|  7.9097e-06|    0.011625|
|        1290|  1.0000e+00|  1.0000e+00|   -6.809008|  7.4473e-06|    0.011622|
|        1300|  1.7280e+00|  1.7280e+00|   -6.809018|  6.7746e-06|    0.011619|
|        1310|  1.0699e+01|  1.0699e+01|   -6.809167|  6.1801e-06|    0.011611|
|        1320|  6.6247e+01|  6.6247e+01|   -6.810120|  1.0731e-05|    0.011731|
|        1330|  9.5396e+00|  9.5396e+00|   -6.812618|  2.6824e-05|    0.012100|
|        1340|  5.9067e+01|  5.9067e+01|   -6.814044|  3.0471e-05|    0.012001|
|        1350|  1.4400e+00|  1.4400e+00|   -6.815070|  3.1632e-05|    0.011963|
|        1360|  1.0000e+00|  1.0000e+00|   -6.814917|  3.1631e-05|    0.011956|
|        1370|  1.0000e+00|  1.0000e+00|   -6.814803|  3.1520e-05|    0.011951|
|        1380|  1.0000e+00|  1.0000e+00|   -6.814745|  3.1415e-05|    0.011946|
|        1390|  1.0000e+00|  1.0000e+00|   -6.814729|  3.1316e-05|    0.011941|
|        1400|  1.0000e+00|  1.0000e+00|   -6.814742|  3.1222e-05|    0.011936|
+-----------------------------------------------------------------------+
|        File Writing Summary       |              Filename             |
+-----------------------------------------------------------------------+
|SU2 binary restart                 |restart_flow_aoa2.dat              |
|Paraview                           |flow_aoa2.vtu                      |
|Paraview surface                   |surface_flow_aoa2.vtu              |
+-----------------------------------------------------------------------+
+-----------------------------------------------------------------------------+
|  Inner_Iter|     Min CFL|     Max CFL|      rms[P]|  Cauchy[CD]|          CD|
+-----------------------------------------------------------------------------+
|        1410|  1.0000e+00|  1.0000e+00|   -6.814774|  3.1134e-05|    0.011931|
|        1420|  1.0000e+00|  1.0000e+00|   -6.814817|  3.1053e-05|    0.011926|
|        1430|  1.0000e+00|  1.0000e+00|   -6.814871|  3.0978e-05|    0.011922|
|        1440|  1.0000e+00|  1.0000e+00|   -6.814935|  3.0911e-05|    0.011917|
|        1450|  1.0000e+00|  1.0000e+00|   -6.815057|  3.0919e-05|    0.011911|
|        1460|  1.0000e+00|  1.0000e+00|   -6.815135|  3.0864e-05|    0.011907|
|        1470|  1.0000e+00|  1.0000e+00|   -6.815215|  3.0815e-05|    0.011903|
|        1480|  1.0000e+00|  1.0000e+00|   -6.815296|  3.0773e-05|    0.011899|
|        1490|  1.0000e+00|  1.0000e+00|   -6.815379|  3.0742e-05|    0.011895|
|        1500|  6.1917e+00|  6.1917e+00|   -6.815603|  3.0950e-05|    0.011885|
|        1510|  1.0000e+00|  1.0000e+00|   -6.815784|  3.0995e-05|    0.011880|
|        1520|  2.9860e+00|  2.9860e+00|   -6.815860|  3.1027e-05|    0.011875|
|        1530|  1.0000e+00|  1.0000e+00|   -6.816003|  3.1110e-05|    0.011870|
|        1540|  1.0000e+00|  1.0000e+00|   -6.816056|  3.1101e-05|    0.011867|
|        1550|  1.0000e+00|  1.0000e+00|   -6.816110|  3.1093e-05|    0.011864|
|        1560|  1.2000e+00|  1.2000e+00|   -6.816169|  3.0891e-05|    0.011861|
|        1570|  1.0000e+00|  1.0000e+00|   -6.816231|  2.6108e-05|    0.011858|
|        1580|  1.0000e+00|  1.0000e+00|   -6.816294|  9.7886e-06|    0.011855|
|        1590|  1.0000e+00|  1.0000e+00|   -6.816339|  5.8922e-06|    0.011853|
|        1600|  1.2000e+00|  1.2000e+00|   -6.816380|  4.4793e-06|    0.011851|
+-----------------------------------------------------------------------+
|        File Writing Summary       |              Filename             |
+-----------------------------------------------------------------------+
|SU2 binary restart                 |restart_flow_aoa2.dat              |
|Paraview                           |flow_aoa2.vtu                      |
|Paraview surface                   |surface_flow_aoa2.vtu              |
+-----------------------------------------------------------------------+
+-----------------------------------------------------------------------------+
|  Inner_Iter|     Min CFL|     Max CFL|      rms[P]|  Cauchy[CD]|          CD|
+-----------------------------------------------------------------------------+
|        1610|  1.0000e+00|  1.0000e+00|   -6.816437|  4.2461e-06|    0.011849|
|        1620|  1.0000e+00|  1.0000e+00|   -6.816473|  4.1034e-06|    0.011848|
|        1630|  1.0000e+00|  1.0000e+00|   -6.816516|  3.9662e-06|    0.011846|
|        1640|  5.1598e+00|  5.1598e+00|   -6.816591|  3.8483e-06|    0.011844|
|        1650|  1.0000e+00|  1.0000e+00|   -6.816682|  3.6943e-06|    0.011844|
|        1660|  1.0000e+00|  1.0000e+00|   -6.816679|  3.5150e-06|    0.011843|
|        1670|  1.0000e+00|  1.0000e+00|   -6.816675|  3.3316e-06|    0.011843|
|        1680|  1.0000e+00|  1.0000e+00|   -6.816674|  3.1535e-06|    0.011843|
|        1690|  1.0000e+00|  1.0000e+00|   -6.816678|  2.9858e-06|    0.011844|
|        1700|  1.0000e+00|  1.0000e+00|   -6.816681|  2.7603e-06|    0.011844|
|        1710|  1.0000e+00|  1.0000e+00|   -6.816682|  2.6158e-06|    0.011845|
|        1720|  1.0000e+00|  1.0000e+00|   -6.816681|  2.4830e-06|    0.011846|
|        1730|  1.0000e+00|  1.0000e+00|   -6.816676|  2.3626e-06|    0.011847|
|        1740|  1.0000e+00|  1.0000e+00|   -6.816668|  2.2494e-06|    0.011848|
|        1750|  1.0000e+00|  1.0000e+00|   -6.816660|  1.9162e-06|    0.011849|
|        1760|  1.0000e+00|  1.0000e+00|   -6.816652|  1.7646e-06|    0.011851|
|        1770|  1.0000e+00|  1.0000e+00|   -6.816643|  1.6460e-06|    0.011852|
|        1780|  5.1598e+00|  5.1598e+00|   -6.816647|  1.5910e-06|    0.011857|
|        1790|  1.0000e+00|  1.0000e+00|   -6.816646|  1.6464e-06|    0.011861|
|        1800|  1.2000e+00|  1.2000e+00|   -6.816605|  1.6466e-06|    0.011864|
+-----------------------------------------------------------------------+
|        File Writing Summary       |              Filename             |
+-----------------------------------------------------------------------+
|SU2 binary restart                 |restart_flow_aoa2.dat              |
|Paraview                           |flow_aoa2.vtu                      |
|Paraview surface                   |surface_flow_aoa2.vtu              |
+-----------------------------------------------------------------------+
+-----------------------------------------------------------------------------+
|  Inner_Iter|     Min CFL|     Max CFL|      rms[P]|  Cauchy[CD]|          CD|
+-----------------------------------------------------------------------------+
|        1810|  7.4301e+00|  7.4301e+00|   -6.816580|  1.8712e-06|    0.011872|
|        1820|  1.0000e+00|  1.0000e+00|   -6.816501|  2.3343e-06|    0.011887|
|        1830|  1.0000e+00|  1.0000e+00|   -6.816433|  2.3545e-06|    0.011890|
|        1840|  1.0000e+00|  1.0000e+00|   -6.816329|  2.4073e-06|    0.011893|
|        1850|  1.0000e+00|  1.0000e+00|   -6.816245|  2.4698e-06|    0.011897|
|        1860|  1.0000e+00|  1.0000e+00|   -6.816174|  2.5256e-06|    0.011900|
|        1870|  1.0000e+00|  1.0000e+00|   -6.816104|  2.6092e-06|    0.011904|
|        1880|  1.0000e+00|  1.0000e+00|   -6.816033|  2.6913e-06|    0.011907|
|        1890|  1.0000e+00|  1.0000e+00|   -6.815963|  2.7581e-06|    0.011911|
|        1900|  1.0000e+00|  1.0000e+00|   -6.815896|  2.8654e-06|    0.011915|
|        1910|  1.0000e+00|  1.0000e+00|   -6.815835|  3.0023e-06|    0.011918|
|        1920|  1.0000e+00|  1.0000e+00|   -6.815775|  3.1473e-06|    0.011922|
|        1930|  1.0000e+00|  1.0000e+00|   -6.815713|  3.2910e-06|    0.011926|
|        1940|  1.0000e+00|  1.0000e+00|   -6.815650|  3.4281e-06|    0.011929|
|        1950|  1.0000e+00|  1.0000e+00|   -6.815585|  3.5585e-06|    0.011933|
|        1960|  1.0000e+00|  1.0000e+00|   -6.815520|  3.6824e-06|    0.011937|
|        1970|  1.0000e+00|  1.0000e+00|   -6.815454|  3.7997e-06|    0.011941|
|        1980|  1.2000e+00|  1.2000e+00|   -6.815383|  3.9297e-06|    0.011945|
|        1990|  1.0000e+00|  1.0000e+00|   -6.815312|  4.0536e-06|    0.011949|
|        2000|  1.0000e+00|  1.0000e+00|   -6.815245|  4.1532e-06|    0.011953|
+-----------------------------------------------------------------------+
|        File Writing Summary       |              Filename             |
+-----------------------------------------------------------------------+
|SU2 binary restart                 |restart_flow_aoa2.dat              |
|Paraview                           |flow_aoa2.vtu                      |
|Paraview surface                   |surface_flow_aoa2.vtu              |
+-----------------------------------------------------------------------+
+-----------------------------------------------------------------------------+
|  Inner_Iter|     Min CFL|     Max CFL|      rms[P]|  Cauchy[CD]|          CD|
+-----------------------------------------------------------------------------+
|        2010|  1.0000e+00|  1.0000e+00|   -6.815175|  4.2431e-06|    0.011957|
|        2020|  1.0000e+00|  1.0000e+00|   -6.815104|  4.3265e-06|    0.011961|
|        2030|  1.0000e+00|  1.0000e+00|   -6.815032|  4.3077e-06|    0.011964|
|        2040|  1.0000e+00|  1.0000e+00|   -6.814956|  4.2935e-06|    0.011968|
|        2050|  1.2000e+00|  1.2000e+00|   -6.814882|  4.3302e-06|    0.011972|
|        2060|  1.0000e+00|  1.0000e+00|   -6.814784|  4.2199e-06|    0.011978|
|        2070|  1.0000e+00|  1.0000e+00|   -6.814690|  3.7924e-06|    0.011981|
|        2080|  1.0000e+00|  1.0000e+00|   -6.814601|  3.8069e-06|    0.011985|
|        2090|  1.0000e+00|  1.0000e+00|   -6.814510|  3.8271e-06|    0.011989|
|        2100|  2.9860e+00|  2.9860e+00|   -6.814402|  3.8911e-06|    0.011994|
|        2110|  1.0000e+00|  1.0000e+00|   -6.814205|  4.1459e-06|    0.012004|
|        2120|  1.0000e+00|  1.0000e+00|   -6.814089|  4.1438e-06|    0.012007|
|        2130|  1.0000e+00|  1.0000e+00|   -6.813977|  4.1383e-06|    0.012011|
|        2140|  1.0000e+00|  1.0000e+00|   -6.813872|  4.1296e-06|    0.012014|
|        2150|  1.0000e+00|  1.0000e+00|   -6.813765|  4.1178e-06|    0.012017|
|        2160|  1.0000e+00|  1.0000e+00|   -6.813657|  4.1030e-06|    0.012021|
|        2170|  1.0000e+00|  1.0000e+00|   -6.813550|  4.0856e-06|    0.012024|
|        2180|  1.0000e+00|  1.0000e+00|   -6.813448|  4.0655e-06|    0.012027|
|        2190|  1.0000e+00|  1.0000e+00|   -6.813349|  4.0428e-06|    0.012030|
|        2200|  1.0000e+00|  1.0000e+00|   -6.813248|  4.0175e-06|    0.012034|
+-----------------------------------------------------------------------+
|        File Writing Summary       |              Filename             |
+-----------------------------------------------------------------------+
|SU2 binary restart                 |restart_flow_aoa2.dat              |
|Paraview                           |flow_aoa2.vtu                      |
|Paraview surface                   |surface_flow_aoa2.vtu              |
+-----------------------------------------------------------------------+
+-----------------------------------------------------------------------------+
|  Inner_Iter|     Min CFL|     Max CFL|      rms[P]|  Cauchy[CD]|          CD|
+-----------------------------------------------------------------------------+
|        2210|  1.0000e+00|  1.0000e+00|   -6.813145|  3.9894e-06|    0.012037|
|        2220|  1.0000e+00|  1.0000e+00|   -6.813037|  3.9612e-06|    0.012040|
|        2230|  1.0000e+00|  1.0000e+00|   -6.812929|  3.9077e-06|    0.012043|
|        2240|  1.4400e+00|  1.4400e+00|   -6.812816|  3.8616e-06|    0.012046|
|        2250|  1.0000e+00|  1.0000e+00|   -6.812661|  3.8849e-06|    0.012050|
|        2260|  1.0000e+00|  1.0000e+00|   -6.812548|  3.8442e-06|    0.012053|
|        2270|  1.0000e+00|  1.0000e+00|   -6.812412|  3.8272e-06|    0.012056|
|        2280|  1.0000e+00|  1.0000e+00|   -6.812295|  3.7816e-06|    0.012059|
|        2290|  1.0000e+00|  1.0000e+00|   -6.812177|  3.7245e-06|    0.012061|
|        2300|  1.0000e+00|  1.0000e+00|   -6.812059|  3.6751e-06|    0.012064|
|        2310|  1.0000e+00|  1.0000e+00|   -6.811940|  3.5456e-06|    0.012066|
|        2320|  2.4883e+00|  2.4883e+00|   -6.811808|  3.5163e-06|    0.012069|
|        2330|  1.0000e+00|  1.0000e+00|   -6.811645|  3.4936e-06|    0.012072|
|        2340|  1.0000e+00|  1.0000e+00|   -6.811505|  3.4337e-06|    0.012075|
|        2350|  1.0000e+00|  1.0000e+00|   -6.811366|  3.3252e-06|    0.012077|
|        2360|  1.0000e+00|  1.0000e+00|   -6.811234|  3.0158e-06|    0.012079|
|        2370|  1.0000e+00|  1.0000e+00|   -6.811100|  2.9590e-06|    0.012081|
|        2380|  1.0000e+00|  1.0000e+00|   -6.810965|  2.9016e-06|    0.012083|
|        2390|  4.2998e+00|  4.2998e+00|   -6.810767|  2.9077e-06|    0.012087|
|        2400|  1.0000e+00|  1.0000e+00|   -6.810561|  2.8714e-06|    0.012089|
+-----------------------------------------------------------------------+
|        File Writing Summary       |              Filename             |
+-----------------------------------------------------------------------+
|SU2 binary restart                 |restart_flow_aoa2.dat              |
|Paraview                           |flow_aoa2.vtu                      |
|Paraview surface                   |surface_flow_aoa2.vtu              |
+-----------------------------------------------------------------------+
+-----------------------------------------------------------------------------+
|  Inner_Iter|     Min CFL|     Max CFL|      rms[P]|  Cauchy[CD]|          CD|
+-----------------------------------------------------------------------------+
|        2410|  2.4883e+00|  2.4883e+00|   -6.810393|  2.8271e-06|    0.012091|
|        2420|  1.0000e+00|  1.0000e+00|   -6.810215|  2.7750e-06|    0.012093|
|        2430|  2.9860e+00|  2.9860e+00|   -6.810026|  2.7376e-06|    0.012096|
|        2440|  1.4400e+00|  1.4400e+00|   -6.809513|  2.8581e-06|    0.012102|
|        2450|  1.0000e+00|  1.0000e+00|   -6.809186|  2.8258e-06|    0.012104|
|        2460|  5.1598e+00|  5.1598e+00|   -6.808819|  2.8122e-06|    0.012107|
|        2470|  1.0000e+00|  1.0000e+00|   -6.808204|  2.8431e-06|    0.012111|
|        2480|  1.0000e+00|  1.0000e+00|   -6.807975|  2.7668e-06|    0.012112|
|        2490|  1.0000e+00|  1.0000e+00|   -6.807743|  2.6814e-06|    0.012113|
|        2500|  1.0000e+00|  1.0000e+00|   -6.807517|  2.5427e-06|    0.012114|
|        2510|  1.0000e+00|  1.0000e+00|   -6.807296|  2.4696e-06|    0.012115|
|        2520|  1.0000e+00|  1.0000e+00|   -6.807076|  2.3717e-06|    0.012116|
|        2530|  1.0000e+00|  1.0000e+00|   -6.806855|  2.3013e-06|    0.012116|
|        2540|  2.0736e+00|  2.0736e+00|   -6.806618|  2.2365e-06|    0.012117|
|        2550|  2.9860e+00|  2.9860e+00|   -6.806298|  2.1842e-06|    0.012119|
|        2560|  1.8488e+01|  1.8488e+01|   -6.804996|  2.3025e-06|    0.012124|
|        2570|  9.5396e+00|  9.5396e+00|   -6.791291|  3.5728e-06|    0.012159|
|        2580|  4.9222e+00|  4.9222e+00|   -6.778798|  3.8007e-06|    0.012167|
|        2590|  1.0000e+00|  1.0000e+00|   -6.777082|  3.7833e-06|    0.012169|
|        2600|  1.0000e+00|  1.0000e+00|   -6.776445|  3.7223e-06|    0.012170|
+-----------------------------------------------------------------------+
|        File Writing Summary       |              Filename             |
+-----------------------------------------------------------------------+
|SU2 binary restart                 |restart_flow_aoa2.dat              |
|Paraview                           |flow_aoa2.vtu                      |
|Paraview surface                   |surface_flow_aoa2.vtu              |
+-----------------------------------------------------------------------+
+-----------------------------------------------------------------------------+
|  Inner_Iter|     Min CFL|     Max CFL|      rms[P]|  Cauchy[CD]|          CD|
+-----------------------------------------------------------------------------+
|        2610|  1.0000e+00|  1.0000e+00|   -6.775736|  3.6721e-06|    0.012171|
|        2620|  1.0000e+00|  1.0000e+00|   -6.775169|  3.6158e-06|    0.012172|
|        2630|  1.0000e+00|  1.0000e+00|   -6.774630|  3.5587e-06|    0.012172|
|        2640|  1.0000e+00|  1.0000e+00|   -6.774093|  3.4369e-06|    0.012173|
|        2650|  1.0000e+00|  1.0000e+00|   -6.773559|  3.3561e-06|    0.012173|
|        2660|  1.0000e+00|  1.0000e+00|   -6.773026|  3.2815e-06|    0.012173|
|        2670|  1.0000e+00|  1.0000e+00|   -6.772482|  3.2132e-06|    0.012174|
|        2680|  1.0000e+00|  1.0000e+00|   -6.771946|  3.1286e-06|    0.012174|
|        2690|  1.0000e+00|  1.0000e+00|   -6.771284|  2.8856e-06|    0.012174|
|        2700|  1.0000e+00|  1.0000e+00|   -6.770746|  2.7942e-06|    0.012174|
|        2710|  1.0000e+00|  1.0000e+00|   -6.770205|  2.6863e-06|    0.012174|
|        2720|  1.0000e+00|  1.0000e+00|   -6.769661|  2.5350e-06|    0.012174|
|        2730|  1.0000e+00|  1.0000e+00|   -6.769113|  2.4962e-06|    0.012174|
|        2740|  1.0000e+00|  1.0000e+00|   -6.768564|  2.4596e-06|    0.012174|
|        2750|  1.0000e+00|  1.0000e+00|   -6.768016|  2.4246e-06|    0.012174|
|        2760|  1.0000e+00|  1.0000e+00|   -6.767467|  2.3907e-06|    0.012174|
|        2770|  1.0000e+00|  1.0000e+00|   -6.766913|  2.3575e-06|    0.012174|
|        2780|  1.0000e+00|  1.0000e+00|   -6.766355|  2.3246e-06|    0.012174|
|        2790|  1.0000e+00|  1.0000e+00|   -6.765794|  2.2872e-06|    0.012174|
|        2800|  1.0000e+00|  1.0000e+00|   -6.765234|  2.2406e-06|    0.012174|
+-----------------------------------------------------------------------+
|        File Writing Summary       |              Filename             |
+-----------------------------------------------------------------------+
|SU2 binary restart                 |restart_flow_aoa2.dat              |
|Paraview                           |flow_aoa2.vtu                      |
|Paraview surface                   |surface_flow_aoa2.vtu              |
+-----------------------------------------------------------------------+
+-----------------------------------------------------------------------------+
|  Inner_Iter|     Min CFL|     Max CFL|      rms[P]|  Cauchy[CD]|          CD|
+-----------------------------------------------------------------------------+
|        2810|  1.0000e+00|  1.0000e+00|   -6.764676|  2.0270e-06|    0.012174|
|        2820|  1.0000e+00|  1.0000e+00|   -6.764116|  6.4216e-07|    0.012174|
|        2830|  1.0000e+00|  1.0000e+00|   -6.763552|  2.9512e-07|    0.012174|
|        2840|  1.0000e+00|  1.0000e+00|   -6.762987|  2.2353e-07|    0.012174|
|        2850|  1.0000e+00|  1.0000e+00|   -6.762421|  1.9926e-07|    0.012174|
|        2860|  1.0000e+00|  1.0000e+00|   -6.761857|  1.7302e-07|    0.012174|
|        2870|  1.0000e+00|  1.0000e+00|   -6.761291|  1.5623e-07|    0.012175|
|        2880|  1.0000e+00|  1.0000e+00|   -6.760725|  1.4341e-07|    0.012175|
|        2890|  1.0000e+00|  1.0000e+00|   -6.760159|  1.3446e-07|    0.012175|
|        2900|  1.0000e+00|  1.0000e+00|   -6.759591|  1.2975e-07|    0.012175|
|        2910|  1.0000e+00|  1.0000e+00|   -6.759028|  1.2956e-07|    0.012176|
|        2920|  1.0000e+00|  1.0000e+00|   -6.758467|  1.3382e-07|    0.012176|
|        2930|  1.0000e+00|  1.0000e+00|   -6.757904|  1.4273e-07|    0.012176|
|        2940|  1.0000e+00|  1.0000e+00|   -6.757345|  1.5531e-07|    0.012177|
|        2950|  1.0000e+00|  1.0000e+00|   -6.756791|  1.7224e-07|    0.012177|
|        2960|  1.0000e+00|  1.0000e+00|   -6.756245|  1.9035e-07|    0.012178|
|        2970|  1.0000e+00|  1.0000e+00|   -6.755700|  2.0866e-07|    0.012178|
|        2980|  1.0000e+00|  1.0000e+00|   -6.755158|  2.2759e-07|    0.012179|
|        2990|  1.0000e+00|  1.0000e+00|   -6.754619|  2.4751e-07|    0.012179|
|        3000|  1.0000e+00|  1.0000e+00|   -6.754086|  2.6883e-07|    0.012180|
+-----------------------------------------------------------------------+
|        File Writing Summary       |              Filename             |
+-----------------------------------------------------------------------+
|SU2 binary restart                 |restart_flow_aoa2.dat              |
|Paraview                           |flow_aoa2.vtu                      |
|Paraview surface                   |surface_flow_aoa2.vtu              |
+-----------------------------------------------------------------------+
+-----------------------------------------------------------------------------+
|  Inner_Iter|     Min CFL|     Max CFL|      rms[P]|  Cauchy[CD]|          CD|
+-----------------------------------------------------------------------------+
|        3010|  1.0000e+00|  1.0000e+00|   -6.753556|  2.9195e-07|    0.012181|
|        3020|  1.0000e+00|  1.0000e+00|   -6.753033|  3.1721e-07|    0.012181|
|        3030|  1.0000e+00|  1.0000e+00|   -6.752515|  3.4489e-07|    0.012182|
|        3040|  1.0000e+00|  1.0000e+00|   -6.752002|  3.7498e-07|    0.012183|
|        3050|  1.0000e+00|  1.0000e+00|   -6.751493|  4.0561e-07|    0.012184|
|        3060|  1.0000e+00|  1.0000e+00|   -6.750987|  4.3622e-07|    0.012185|
|        3070|  1.0000e+00|  1.0000e+00|   -6.750486|  4.6682e-07|    0.012185|
|        3080|  1.0000e+00|  1.0000e+00|   -6.749991|  4.9743e-07|    0.012186|
|        3090|  1.0000e+00|  1.0000e+00|   -6.749504|  5.2813e-07|    0.012187|
|        3100|  1.0000e+00|  1.0000e+00|   -6.749022|  5.5896e-07|    0.012188|
|        3110|  1.0000e+00|  1.0000e+00|   -6.748541|  5.8999e-07|    0.012189|
|        3120|  1.0000e+00|  1.0000e+00|   -6.748063|  6.2124e-07|    0.012190|
|        3130|  1.0000e+00|  1.0000e+00|   -6.747591|  6.5274e-07|    0.012191|
|        3140|  1.0000e+00|  1.0000e+00|   -6.747130|  6.8449e-07|    0.012192|
|        3150|  1.0000e+00|  1.0000e+00|   -6.746674|  7.1646e-07|    0.012193|
|        3160|  1.0000e+00|  1.0000e+00|   -6.746193|  7.5158e-07|    0.012195|
|        3170|  1.2000e+00|  1.2000e+00|   -6.745733|  7.8492e-07|    0.012196|
|        3180|  1.0000e+00|  1.0000e+00|   -6.745182|  8.2930e-07|    0.012197|
|        3190|  1.0000e+00|  1.0000e+00|   -6.744742|  8.6211e-07|    0.012198|
|        3200|  1.0000e+00|  1.0000e+00|   -6.744307|  8.9482e-07|    0.012200|
+-----------------------------------------------------------------------+
|        File Writing Summary       |              Filename             |
+-----------------------------------------------------------------------+
|SU2 binary restart                 |restart_flow_aoa2.dat              |
|Paraview                           |flow_aoa2.vtu                      |
|Paraview surface                   |surface_flow_aoa2.vtu              |
+-----------------------------------------------------------------------+
+-----------------------------------------------------------------------------+
|  Inner_Iter|     Min CFL|     Max CFL|      rms[P]|  Cauchy[CD]|          CD|
+-----------------------------------------------------------------------------+
|        3210|  1.0000e+00|  1.0000e+00|   -6.743874|  9.2734e-07|    0.012201|
|        3220|  1.0000e+00|  1.0000e+00|   -6.743443|  9.5953e-07|    0.012202|
|        3230|  1.0000e+00|  1.0000e+00|   -6.743017|  9.9128e-07|    0.012204|
|        3240|  1.0000e+00|  1.0000e+00|   -6.742595|  1.0225e-06|    0.012205|
|        3250|  1.0000e+00|  1.0000e+00|   -6.742177|  1.0529e-06|    0.012206|
|        3260|  1.0000e+00|  1.0000e+00|   -6.741766|  1.0826e-06|    0.012208|
|        3270|  1.0000e+00|  1.0000e+00|   -6.741356|  1.1114e-06|    0.012209|
|        3280|  1.0000e+00|  1.0000e+00|   -6.740950|  1.1392e-06|    0.012211|
|        3290|  1.0000e+00|  1.0000e+00|   -6.740553|  1.1658e-06|    0.012212|
|        3300|  1.0000e+00|  1.0000e+00|   -6.740163|  1.1914e-06|    0.012213|
|        3310|  1.0000e+00|  1.0000e+00|   -6.739775|  1.2156e-06|    0.012215|
|        3320|  1.0000e+00|  1.0000e+00|   -6.739390|  1.2386e-06|    0.012216|
|        3330|  1.0000e+00|  1.0000e+00|   -6.739010|  1.2603e-06|    0.012218|
|        3340|  1.0000e+00|  1.0000e+00|   -6.738636|  1.2806e-06|    0.012219|
|        3350|  1.0000e+00|  1.0000e+00|   -6.738261|  1.3007e-06|    0.012221|
|        3360|  3.5832e+00|  3.5832e+00|   -6.737766|  1.3517e-06|    0.012223|
|        3370|  1.7280e+00|  1.7280e+00|   -6.736858|  1.4565e-06|    0.012227|
|        3380|  1.0000e+00|  1.0000e+00|   -6.736111|  1.5324e-06|    0.012229|
|        3390|  2.0736e+00|  2.0736e+00|   -6.735731|  1.5523e-06|    0.012231|
|        3400|  1.0000e+00|  1.0000e+00|   -6.735263|  1.5806e-06|    0.012233|
+-----------------------------------------------------------------------+
|        File Writing Summary       |              Filename             |
+-----------------------------------------------------------------------+
|SU2 binary restart                 |restart_flow_aoa2.dat              |
|Paraview                           |flow_aoa2.vtu                      |
|Paraview surface                   |surface_flow_aoa2.vtu              |
+-----------------------------------------------------------------------+
+-----------------------------------------------------------------------------+
|  Inner_Iter|     Min CFL|     Max CFL|      rms[P]|  Cauchy[CD]|          CD|
+-----------------------------------------------------------------------------+
|        3410|  1.0000e+00|  1.0000e+00|   -6.734928|  1.5869e-06|    0.012234|
|        3420|  1.0000e+00|  1.0000e+00|   -6.734525|  1.6146e-06|    0.012236|
|        3430|  1.0000e+00|  1.0000e+00|   -6.734161|  1.6086e-06|    0.012237|
|        3440|  1.0000e+00|  1.0000e+00|   -6.733850|  1.6125e-06|    0.012239|
|        3450|  1.0000e+00|  1.0000e+00|   -6.733506|  1.6218e-06|    0.012240|
|        3460|  1.0000e+00|  1.0000e+00|   -6.733096|  1.6423e-06|    0.012242|
|        3470|  3.5832e+00|  3.5832e+00|   -6.732682|  1.6711e-06|    0.012244|
|        3480|  4.2998e+00|  4.2998e+00|   -6.732033|  1.7358e-06|    0.012247|
|        3490|  1.0000e+00|  1.0000e+00|   -6.729941|  2.0420e-06|    0.012256|
|        3500|  1.0000e+00|  1.0000e+00|   -6.729335|  2.0306e-06|    0.012257|
|        3510|  1.0000e+00|  1.0000e+00|   -6.728973|  2.0039e-06|    0.012258|
|        3520|  1.0000e+00|  1.0000e+00|   -6.728655|  1.9737e-06|    0.012259|
|        3530|  5.1598e+00|  5.1598e+00|   -6.728178|  1.9661e-06|    0.012260|
|        3540|  1.0000e+00|  1.0000e+00|   -6.727256|  1.9720e-06|    0.012261|
|        3550|  1.0000e+00|  1.0000e+00|   -6.726978|  1.9236e-06|    0.012262|
|        3560|  1.0000e+00|  1.0000e+00|   -6.726720|  1.8725e-06|    0.012262|
|        3570|  1.0000e+00|  1.0000e+00|   -6.726362|  1.8195e-06|    0.012262|
|        3580|  1.0000e+00|  1.0000e+00|   -6.726127|  1.7630e-06|    0.012262|
|        3590|  3.5832e+00|  3.5832e+00|   -6.725849|  1.7118e-06|    0.012262|
|        3600|  2.2186e+01|  2.2186e+01|   -6.724724|  1.8277e-06|    0.012257|
+-----------------------------------------------------------------------+
|        File Writing Summary       |              Filename             |
+-----------------------------------------------------------------------+
|SU2 binary restart                 |restart_flow_aoa2.dat              |
|Paraview                           |flow_aoa2.vtu                      |
|Paraview surface                   |surface_flow_aoa2.vtu              |
+-----------------------------------------------------------------------+
+-----------------------------------------------------------------------------+
|  Inner_Iter|     Min CFL|     Max CFL|      rms[P]|  Cauchy[CD]|          CD|
+-----------------------------------------------------------------------------+
|        3610|  1.0000e+00|  1.0000e+00|   -6.723502|  1.9619e-06|    0.012252|
|        3620|  1.0000e+00|  1.0000e+00|   -6.723149|  1.8606e-06|    0.012251|
|        3630|  2.0736e+00|  2.0736e+00|   -6.722833|  1.7963e-06|    0.012249|
|        3640|  1.0699e+00|  1.0699e+00|   -6.722109|  2.0270e-06|    0.012242|
|        3650|  1.0000e+00|  1.0000e+00|   -6.721778|  2.0146e-06|    0.012240|
|        3660|  1.0000e+00|  1.0000e+00|   -6.721569|  2.0223e-06|    0.012239|
|        3670|  1.0000e+00|  1.0000e+00|   -6.721381|  2.0114e-06|    0.012237|
|        3680|  1.0000e+00|  1.0000e+00|   -6.721211|  2.0239e-06|    0.012236|
|        3690|  1.0000e+00|  1.0000e+00|   -6.721056|  2.0386e-06|    0.012234|
|        3700|  5.1598e+00|  5.1598e+00|   -6.720811|  2.1325e-06|    0.012230|
|        3710|  3.1948e+01|  3.1948e+01|   -6.719845|  3.0746e-06|    0.012205|
|        3720|  1.0000e+00|  1.0000e+00|   -6.717754|  4.1532e-06|    0.012176|
|        3730|  1.0000e+00|  1.0000e+00|   -6.717218|  4.0412e-06|    0.012176|
|        3740|  2.9860e+00|  2.9860e+00|   -6.716754|  3.6943e-06|    0.012176|
|        3750|  1.8488e+01|  1.8488e+01|   -6.716695|  3.8878e-06|    0.012182|
|        3760|  1.0000e+00|  1.0000e+00|   -6.717058|  4.1423e-06|    0.012190|
|        3770|  1.4400e+00|  1.4400e+00|   -6.716995|  4.1816e-06|    0.012191|
|        3780|  1.0000e+00|  1.0000e+00|   -6.717032|  4.3055e-06|    0.012195|
|        3790|  1.0000e+00|  1.0000e+00|   -6.717053|  4.3129e-06|    0.012197|
|        3800|  1.0000e+00|  1.0000e+00|   -6.717088|  4.3760e-06|    0.012199|
+-----------------------------------------------------------------------+
|        File Writing Summary       |              Filename             |
+-----------------------------------------------------------------------+
|SU2 binary restart                 |restart_flow_aoa2.dat              |
|Paraview                           |flow_aoa2.vtu                      |
|Paraview surface                   |surface_flow_aoa2.vtu              |
+-----------------------------------------------------------------------+
+-----------------------------------------------------------------------------+
|  Inner_Iter|     Min CFL|     Max CFL|      rms[P]|  Cauchy[CD]|          CD|
+-----------------------------------------------------------------------------+
|        3810|  2.4883e+00|  2.4883e+00|   -6.717140|  4.4617e-06|    0.012201|
|        3820|  1.5407e+01|  1.5407e+01|   -6.717581|  4.9725e-06|    0.012214|
|        3830|  1.0000e+00|  1.0000e+00|   -6.721681|  7.3177e-06|    0.012273|
|        3840|  2.4883e+00|  2.4883e+00|   -6.721073|  7.3691e-06|    0.012274|
|        3850|  2.4883e+00|  2.4883e+00|   -6.720850|  7.2609e-06|    0.012276|
|        3860|  1.5407e+01|  1.5407e+01|   -6.721570|  7.2516e-06|    0.012281|
|        3870|  9.5396e+01|  9.5396e+01|   -6.729274|  8.5583e-06|    0.012254|
|        3880|  4.9222e+01|  4.9222e+01|   -6.737444|  1.0213e-05|    0.012211|
|        3890|  8.5056e+01|  8.5056e+01|   -6.763042|  1.2450e-05|    0.012251|
|        3900|  4.3887e+01|  4.3887e+01|   -6.774682|  1.3447e-05|    0.012278|
|        3910|  2.2645e+01|  2.2645e+01|   -6.792444|  1.3963e-05|    0.012273|
|        3920|  8.1140e+01|  8.1140e+01|   -6.815090|  1.5695e-05|    0.012228|
|        3930|  8.1140e+01|  8.1140e+01|   -6.851217|  1.6450e-05|    0.012208|
|        3940|  2.9074e+01|  2.9074e+01|   -6.870578|  1.6511e-05|    0.012205|
|        3950|  8.6815e+01|  8.6815e+01|   -6.891737|  1.7147e-05|    0.012185|
|        3960|  3.1107e+01|  3.1107e+01|   -6.905250|  1.6412e-05|    0.012178|
|        3970|  1.6051e+01|  1.6051e+01|   -6.920392|  1.5307e-05|    0.012179|
|        3980|  8.2818e+01|  8.2818e+01|   -6.933126|  1.5482e-05|    0.012177|
|        3990|  8.2818e+01|  8.2818e+01|   -6.971090|  1.6518e-05|    0.012151|
|        4000|  8.2818e+01|  8.2818e+01|   -7.014356|  1.6490e-05|    0.012145|
+-----------------------------------------------------------------------+
|        File Writing Summary       |              Filename             |
+-----------------------------------------------------------------------+
|SU2 binary restart                 |restart_flow_aoa2.dat              |
|Paraview                           |flow_aoa2.vtu                      |
|Paraview surface                   |surface_flow_aoa2.vtu              |
+-----------------------------------------------------------------------+
+-----------------------------------------------------------------------------+
|  Inner_Iter|     Min CFL|     Max CFL|      rms[P]|  Cauchy[CD]|          CD|
+-----------------------------------------------------------------------------+
|        4010|  8.2818e+01|  8.2818e+01|   -7.052781|  1.6907e-05|    0.012128|
|        4020|  4.2732e+01|  4.2732e+01|   -7.067397|  1.7137e-05|    0.012121|
|        4030|  8.8610e+01|  8.8610e+01|   -7.091008|  1.7311e-05|    0.012112|
|        4040|  8.8610e+01|  8.8610e+01|   -7.119363|  1.7663e-05|    0.012101|
|        4050|  8.8610e+01|  8.8610e+01|   -7.150449|  1.7900e-05|    0.012094|
|        4060|  8.8610e+01|  8.8610e+01|   -7.178724|  1.8161e-05|    0.012085|
|        4070|  8.8610e+01|  8.8610e+01|   -7.198432|  1.7985e-05|    0.012076|
|        4080|  3.1750e+01|  3.1750e+01|   -7.203094|  1.5774e-05|    0.012073|
|        4090|  9.4806e+01|  9.4806e+01|   -7.202590|  1.5911e-05|    0.012068|
|        4100|  9.4806e+01|  9.4806e+01|   -7.200592|  1.6051e-05|    0.012063|
|        4110|  9.4806e+01|  9.4806e+01|   -7.200534|  1.5969e-05|    0.012060|
|        4120|  9.4806e+01|  9.4806e+01|   -7.201255|  1.4753e-05|    0.012056|
|        4130|  9.4806e+01|  9.4806e+01|   -7.201178|  1.3182e-05|    0.012053|
|        4140|  9.4806e+01|  9.4806e+01|   -7.202622|  1.0762e-05|    0.012050|
|        4150|  9.4806e+01|  9.4806e+01|   -7.206158|  9.7747e-06|    0.012048|
|        4160|  9.4806e+01|  9.4806e+01|   -7.212897|  9.2574e-06|    0.012047|
|        4170|  9.4806e+01|  9.4806e+01|   -7.222140|  7.5278e-06|    0.012045|
|        4180|  9.4806e+01|  9.4806e+01|   -7.232700|  6.7712e-06|    0.012043|
|        4190|  9.4806e+01|  9.4806e+01|   -7.244984|  6.6884e-06|    0.012042|
|        4200|  9.4806e+01|  9.4806e+01|   -7.257904|  5.9546e-06|    0.012041|
+-----------------------------------------------------------------------+
|        File Writing Summary       |              Filename             |
+-----------------------------------------------------------------------+
|SU2 binary restart                 |restart_flow_aoa2.dat              |
|Paraview                           |flow_aoa2.vtu                      |
|Paraview surface                   |surface_flow_aoa2.vtu              |
+-----------------------------------------------------------------------+
+-----------------------------------------------------------------------------+
|  Inner_Iter|     Min CFL|     Max CFL|      rms[P]|  Cauchy[CD]|          CD|
+-----------------------------------------------------------------------------+
|        4210|  1.3652e+01|  1.3652e+01|   -7.271964|  5.7192e-06|    0.012040|
|        4220|  8.4530e+01|  8.4530e+01|   -7.276691|  5.6764e-06|    0.012040|
|        4230|  1.0144e+02|  1.0144e+02|   -7.291620|  5.5536e-06|    0.012038|
|        4240|  5.2339e+01|  5.2339e+01|   -7.297310|  4.5169e-06|    0.012038|
|        4250|  2.7006e+01|  2.7006e+01|   -7.304564|  4.3252e-06|    0.012037|
|        4260|  9.6766e+01|  9.6766e+01|   -7.312741|  3.6462e-06|    0.012037|
|        4270|  2.8894e+01|  2.8894e+01|   -7.322995|  3.3775e-06|    0.012036|
|        4280|  1.4909e+01|  1.4909e+01|   -7.329544|  3.0483e-06|    0.012036|
|        4290|  9.2311e+01|  9.2311e+01|   -7.334224|  2.6338e-06|    0.012035|
|        4300|  4.7631e+01|  4.7631e+01|   -7.339581|  2.3357e-06|    0.012035|
|        4310|  9.8767e+01|  9.8767e+01|   -7.348255|  2.0281e-06|    0.012034|
|        4320|  2.9492e+01|  2.9492e+01|   -7.355495|  1.7106e-06|    0.012034|
|        4330|  1.5217e+01|  1.5217e+01|   -7.358884|  1.5801e-06|    0.012033|
|        4340|  9.4220e+01|  9.4220e+01|   -7.361639|  1.3909e-06|    0.012033|
|        4350|  4.8615e+01|  4.8615e+01|   -7.364352|  1.1958e-06|    0.012033|
|        4360|  1.0081e+02|  1.0081e+02|   -7.368055|  1.0966e-06|    0.012032|
|        4370|  4.3346e+01|  4.3346e+01|   -7.370905|  9.6893e-07|    0.012032|
|        4380|  2.2366e+01|  2.2366e+01|   -7.372767|  8.3707e-07|    0.012032|
|        4390|  1.1540e+01|  1.1540e+01|   -7.373935|  7.3760e-07|    0.012032|
|        4400|  7.1454e+01|  7.1454e+01|   -7.375365|  6.7118e-07|    0.012032|
+-----------------------------------------------------------------------+
|        File Writing Summary       |              Filename             |
+-----------------------------------------------------------------------+
|SU2 binary restart                 |restart_flow_aoa2.dat              |
|Paraview                           |flow_aoa2.vtu                      |
|Paraview surface                   |surface_flow_aoa2.vtu              |
+-----------------------------------------------------------------------+
+-----------------------------------------------------------------------------+
|  Inner_Iter|     Min CFL|     Max CFL|      rms[P]|  Cauchy[CD]|          CD|
+-----------------------------------------------------------------------------+
|        4410|  1.0289e+02|  1.0289e+02|   -7.378874|  6.3863e-07|    0.012031|
|        4420|  4.4242e+01|  4.4242e+01|   -7.381727|  5.7628e-07|    0.012031|
|        4430|  2.2828e+01|  2.2828e+01|   -7.384159|  5.1563e-07|    0.012031|
|        4440|  1.1779e+01|  1.1779e+01|   -7.386352|  4.7728e-07|    0.012031|
|        4450|  7.2931e+01|  7.2931e+01|   -7.388529|  4.2577e-07|    0.012031|
|        4460|  1.0502e+02|  1.0502e+02|   -7.394379|  4.0557e-07|    0.012030|
|        4470|  1.0502e+02|  1.0502e+02|   -7.401848|  3.9780e-07|    0.012030|
|        4480|  1.0502e+02|  1.0502e+02|   -7.410114|  3.4544e-07|    0.012030|
|        4490|  3.1359e+01|  3.1359e+01|   -7.416305|  3.3946e-07|    0.012030|
|        4500|  1.6181e+01|  1.6181e+01|   -7.420680|  3.2560e-07|    0.012030|
|        4510|  1.0019e+02|  1.0019e+02|   -7.423858|  3.0697e-07|    0.012030|
|        4520|  5.1694e+01|  5.1694e+01|   -7.427972|  2.8432e-07|    0.012030|
|        4530|  1.0719e+02|  1.0719e+02|   -7.435575|  2.8180e-07|    0.012030|
|        4540|  1.0719e+02|  1.0719e+02|   -7.445457|  2.7761e-07|    0.012030|
|        4550|  1.2863e+02|  1.2863e+02|   -7.455376|  2.7169e-07|    0.012029|
|        4560|  6.6370e+01|  6.6370e+01|   -7.459560|  2.2786e-07|    0.012029|
|        4570|  1.1469e+02|  1.1469e+02|   -7.468440|  2.1873e-07|    0.012029|
|        4580|  1.1469e+02|  1.1469e+02|   -7.478900|  2.2182e-07|    0.012029|
|        4590|  1.1469e+02|  1.1469e+02|   -7.489457|  2.2268e-07|    0.012029|
|        4600|  1.1469e+02|  1.1469e+02|   -7.500382|  2.2003e-07|    0.012029|
+-----------------------------------------------------------------------+
|        File Writing Summary       |              Filename             |
+-----------------------------------------------------------------------+
|SU2 binary restart                 |restart_flow_aoa2.dat              |
|Paraview                           |flow_aoa2.vtu                      |
|Paraview surface                   |surface_flow_aoa2.vtu              |
+-----------------------------------------------------------------------+
+-----------------------------------------------------------------------------+
|  Inner_Iter|     Min CFL|     Max CFL|      rms[P]|  Cauchy[CD]|          CD|
+-----------------------------------------------------------------------------+
|        4610|  1.1469e+02|  1.1469e+02|   -7.511961|  1.9294e-07|    0.012028|
|        4620|  1.1469e+02|  1.1469e+02|   -7.524487|  1.9299e-07|    0.012028|
|        4630|  1.1469e+02|  1.1469e+02|   -7.538193|  1.9377e-07|    0.012028|
|        4640|  1.1469e+02|  1.1469e+02|   -7.553243|  1.8947e-07|    0.012028|
|        4650|  2.8538e+01|  2.8538e+01|   -7.563849|  1.8786e-07|    0.012028|
|        4660|  1.4725e+01|  1.4725e+01|   -7.572969|  1.6326e-07|    0.012028|
|        4670|  9.1173e+01|  9.1173e+01|   -7.577819|  1.6034e-07|    0.012028|
|        4680|  1.0941e+02|  1.0941e+02|   -7.594655|  1.6547e-07|    0.012028|
|        4690|  1.0941e+02|  1.0941e+02|   -7.613432|  1.5883e-07|    0.012028|
|        4700|  1.0941e+02|  1.0941e+02|   -7.633214|  1.5667e-07|    0.012028|
|        4710|  1.0941e+02|  1.0941e+02|   -7.653828|  1.3565e-07|    0.012027|
|        4720|  5.6452e+01|  5.6452e+01|   -7.661471|  1.3208e-07|    0.012028|
|        4730|  2.9128e+01|  2.9128e+01|   -7.671773|  1.2640e-07|    0.012027|
|        4740|  1.0437e+02|  1.0437e+02|   -7.683756|  1.2190e-07|    0.012027|
|        4750|  1.0437e+02|  1.0437e+02|   -7.704563|  1.2010e-07|    0.012027|
|        4760|  1.0437e+02|  1.0437e+02|   -7.725426|  1.1989e-07|    0.012027|
|        4770|  1.0437e+02|  1.0437e+02|   -7.746178|  1.1602e-07|    0.012027|
|        4780|  1.0437e+02|  1.0437e+02|   -7.766651|  1.0175e-07|    0.012027|
|        4790|  1.5029e+01|  1.5029e+01|   -7.784901|  9.8430e-08|    0.012027|
|        4800|  9.3058e+01|  9.3058e+01|   -7.791011|  9.4471e-08|    0.012028|
+-----------------------------------------------------------------------+
|        File Writing Summary       |              Filename             |
+-----------------------------------------------------------------------+
|SU2 binary restart                 |restart_flow_aoa2.dat              |
|Paraview                           |flow_aoa2.vtu                      |
|Paraview surface                   |surface_flow_aoa2.vtu              |
+-----------------------------------------------------------------------+
+-----------------------------------------------------------------------------+
|  Inner_Iter|     Min CFL|     Max CFL|      rms[P]|  Cauchy[CD]|          CD|
+-----------------------------------------------------------------------------+
|        4810|  4.8016e+01|  4.8016e+01|   -7.798985|  9.3011e-08|    0.012028|
|        4820|  9.9566e+01|  9.9566e+01|   -7.813606|  8.1534e-08|    0.012027|
|        4830|  9.9566e+01|  9.9566e+01|   -7.831277|  7.5287e-08|    0.012028|
|        4840|  9.9566e+01|  9.9566e+01|   -7.848171|  7.1151e-08|    0.012028|
|        4850|  9.9566e+01|  9.9566e+01|   -7.864242|  6.3452e-08|    0.012028|
|        4860|  9.9566e+01|  9.9566e+01|   -7.879455|  5.6865e-08|    0.012028|
|        4870|  9.9566e+01|  9.9566e+01|   -7.893781|  5.0191e-08|    0.012028|
|        4880|  9.9566e+01|  9.9566e+01|   -7.907208|  4.5257e-08|    0.012027|
|        4890|  9.9566e+01|  9.9566e+01|   -7.919743|  4.1650e-08|    0.012027|
|        4900|  9.9566e+01|  9.9566e+01|   -7.931395|  4.1033e-08|    0.012027|
|        4910|  9.9566e+01|  9.9566e+01|   -7.942185|  4.0725e-08|    0.012027|
|        4920|  9.9566e+01|  9.9566e+01|   -7.952160|  4.3034e-08|    0.012027|
|        4930|  9.9566e+01|  9.9566e+01|   -7.961383|  3.9233e-08|    0.012027|
|        4940|  9.9566e+01|  9.9566e+01|   -7.969933|  4.2449e-08|    0.012027|
|        4950|  9.9566e+01|  9.9566e+01|   -7.977909|  4.6507e-08|    0.012027|
|        4960|  9.9566e+01|  9.9566e+01|   -7.985430|  5.0962e-08|    0.012027|
|        4970|  9.9566e+01|  9.9566e+01|   -7.992626|  5.7059e-08|    0.012027|
|        4980|  9.9566e+01|  9.9566e+01|   -7.999636|  6.3634e-08|    0.012026|
|        4990|  9.9566e+01|  9.9566e+01|   -8.006602|  6.8893e-08|    0.012026|
|        5000|  9.9566e+01|  9.9566e+01|   -8.013669|  7.4018e-08|    0.012026|
+-----------------------------------------------------------------------+
|        File Writing Summary       |              Filename             |
+-----------------------------------------------------------------------+
|SU2 binary restart                 |restart_flow_aoa2.dat              |
|Paraview                           |flow_aoa2.vtu                      |
|Paraview surface                   |surface_flow_aoa2.vtu              |
+-----------------------------------------------------------------------+
+-----------------------------------------------------------------------------+
|  Inner_Iter|     Min CFL|     Max CFL|      rms[P]|  Cauchy[CD]|          CD|
+-----------------------------------------------------------------------------+
|        5010|  9.9566e+01|  9.9566e+01|   -8.020974|  7.8510e-08|    0.012026|
|        5020|  3.5676e+01|  3.5676e+01|   -8.025609|  8.1307e-08|    0.012026|
|        5030|  1.0653e+02|  1.0653e+02|   -8.031152|  8.5833e-08|    0.012026|
|        5040|  1.0653e+02|  1.0653e+02|   -8.040073|  9.1678e-08|    0.012025|
|        5050|  1.0653e+02|  1.0653e+02|   -8.049735|  9.5799e-08|    0.012025|
|        5060|  1.0653e+02|  1.0653e+02|   -8.060152|  9.9166e-08|    0.012025|
|        5070|  1.0653e+02|  1.0653e+02|   -8.071342|  1.0064e-07|    0.012025|
|        5080|  1.0653e+02|  1.0653e+02|   -8.083266|  1.0094e-07|    0.012025|
|        5090|  1.0653e+02|  1.0653e+02|   -8.095835|  9.9327e-08|    0.012025|
|        5100|  1.0653e+02|  1.0653e+02|   -8.108907|  1.0013e-07|    0.012025|
|        5110|  1.8408e+01|  1.8408e+01|   -8.119896|  1.0160e-07|    0.012025|
|        5120|  1.1398e+02|  1.1398e+02|   -8.124854|  1.0179e-07|    0.012025|
|        5130|  5.8810e+01|  5.8810e+01|   -8.129848|  1.0193e-07|    0.012025|
|        5140|  1.0162e+02|  1.0162e+02|   -8.140530|  1.0255e-07|    0.012025|
|        5150|  1.0162e+02|  1.0162e+02|   -8.152660|  1.0296e-07|    0.012025|
|        5160|  1.0162e+02|  1.0162e+02|   -8.163884|  1.0239e-07|    0.012025|
|        5170|  1.0162e+02|  1.0162e+02|   -8.173733|  9.9804e-08|    0.012025|
|        5180|  3.0345e+01|  3.0345e+01|   -8.179566|  9.5844e-08|    0.012025|
|        5190|  1.0873e+02|  1.0873e+02|   -8.184061|  9.1036e-08|    0.012025|
|        5200|  1.0873e+02|  1.0873e+02|   -8.189950|  8.7160e-08|    0.012025|
+-----------------------------------------------------------------------+
|        File Writing Summary       |              Filename             |
+-----------------------------------------------------------------------+
|SU2 binary restart                 |restart_flow_aoa2.dat              |
|Paraview                           |flow_aoa2.vtu                      |
|Paraview surface                   |surface_flow_aoa2.vtu              |
+-----------------------------------------------------------------------+
+-----------------------------------------------------------------------------+
|  Inner_Iter|     Min CFL|     Max CFL|      rms[P]|  Cauchy[CD]|          CD|
+-----------------------------------------------------------------------------+
|        5210|  1.0873e+02|  1.0873e+02|   -8.193855|  8.3668e-08|    0.012025|
|        5220|  1.0873e+02|  1.0873e+02|   -8.196071|  8.1195e-08|    0.012025|
|        5230|  1.0873e+02|  1.0873e+02|   -8.197431|  7.9150e-08|    0.012025|
|        5240|  3.8960e+01|  3.8960e+01|   -8.198240|  7.4792e-08|    0.012025|
|        5250|  2.0103e+01|  2.0103e+01|   -8.199081|  7.0345e-08|    0.012025|
|        5260|  1.2447e+02|  1.2447e+02|   -8.199839|  6.5935e-08|    0.012025|
|        5270|  6.4224e+01|  6.4224e+01|   -8.200827|  6.4385e-08|    0.012025|
|        5280|  2.3013e+01|  2.3013e+01|   -8.203465|  6.2839e-08|    0.012025|
|        5290|  1.1874e+01|  1.1874e+01|   -8.205727|  5.9011e-08|    0.012025|
|        5300|  7.3521e+01|  7.3521e+01|   -8.207685|  5.5427e-08|    0.012025|
|        5310|  3.7935e+01|  3.7935e+01|   -8.211122|  5.3066e-08|    0.012025|
|        5320|  1.9574e+01|  1.9574e+01|   -8.216137|  5.2731e-08|    0.012025|
|        5330|  1.2120e+02|  1.2120e+02|   -8.219797|  5.3185e-08|    0.012024|
|        5340|  1.2120e+02|  1.2120e+02|   -8.232183|  5.4978e-08|    0.012024|
|        5350|  1.2120e+02|  1.2120e+02|   -8.247134|  5.5408e-08|    0.012024|
|        5360|  6.2534e+01|  6.2534e+01|   -8.252985|  5.4490e-08|    0.012024|
|        5370|  3.2266e+01|  3.2266e+01|   -8.260918|  5.4380e-08|    0.012024|
|        5380|  1.1562e+02|  1.1562e+02|   -8.270108|  5.4428e-08|    0.012024|
|        5390|  1.1562e+02|  1.1562e+02|   -8.285724|  5.4476e-08|    0.012024|
|        5400|  5.9655e+01|  5.9655e+01|   -8.292777|  5.3023e-08|    0.012024|
+-----------------------------------------------------------------------+
|        File Writing Summary       |              Filename             |
+-----------------------------------------------------------------------+
|SU2 binary restart                 |restart_flow_aoa2.dat              |
|Paraview                           |flow_aoa2.vtu                      |
|Paraview surface                   |surface_flow_aoa2.vtu              |
+-----------------------------------------------------------------------+
+-----------------------------------------------------------------------------+
|  Inner_Iter|     Min CFL|     Max CFL|      rms[P]|  Cauchy[CD]|          CD|
+-----------------------------------------------------------------------------+
|        5410|  1.2370e+02|  1.2370e+02|   -8.304129|  5.3621e-08|    0.012024|
|        5420|  3.6937e+01|  3.6937e+01|   -8.312779|  5.4948e-08|    0.012024|
|        5430|  1.9059e+01|  1.9059e+01|   -8.318342|  5.6206e-08|    0.012024|
|        5440|  1.1801e+02|  1.1801e+02|   -8.321532|  5.7459e-08|    0.012024|
|        5450|  6.0888e+01|  6.0888e+01|   -8.325215|  5.7331e-08|    0.012024|
|        5460|  3.1417e+01|  3.1417e+01|   -8.328786|  5.6427e-08|    0.012024|
|        5470|  1.6211e+01|  1.6211e+01|   -8.332525|  5.4009e-08|    0.012024|
|        5480|  1.0037e+02|  1.0037e+02|   -8.334442|  5.0241e-08|    0.012024|
|        5490|  5.1789e+01|  5.1789e+01|   -8.337673|  4.8912e-08|    0.012024|
|        5500|  1.2887e+02|  1.2887e+02|   -8.343027|  4.8745e-08|    0.012024|
|        5510|  5.5411e+01|  5.5411e+01|   -8.347641|  4.7676e-08|    0.012024|
|        5520|  2.8591e+01|  2.8591e+01|   -8.352420|  4.7115e-08|    0.012024|
|        5530|  1.4752e+01|  1.4752e+01|   -8.357317|  4.5138e-08|    0.012024|
|        5540|  9.1342e+01|  9.1342e+01|   -8.361228|  4.3603e-08|    0.012024|
|        5550|  1.3153e+02|  1.3153e+02|   -8.373267|  4.4843e-08|    0.012023|
|        5560|  1.5784e+01|  1.5784e+01|   -8.388617|  4.5720e-08|    0.012023|
|        5570|  9.7730e+01|  9.7730e+01|   -8.394530|  4.4574e-08|    0.012023|
|        5580|  1.4073e+02|  1.4073e+02|   -8.409897|  4.5429e-08|    0.012023|
|        5590|  1.4073e+02|  1.4073e+02|   -8.426016|  4.5925e-08|    0.012023|
|        5600|  1.4073e+02|  1.4073e+02|   -8.439596|  4.7380e-08|    0.012023|
+-----------------------------------------------------------------------+
|        File Writing Summary       |              Filename             |
+-----------------------------------------------------------------------+
|SU2 binary restart                 |restart_flow_aoa2.dat              |
|Paraview                           |flow_aoa2.vtu                      |
|Paraview surface                   |surface_flow_aoa2.vtu              |
+-----------------------------------------------------------------------+
+-----------------------------------------------------------------------------+
|  Inner_Iter|     Min CFL|     Max CFL|      rms[P]|  Cauchy[CD]|          CD|
+-----------------------------------------------------------------------------+
|        5610|  3.5018e+01|  3.5018e+01|   -8.448427|  4.8496e-08|    0.012023|
|        5620|  1.5057e+02|  1.5057e+02|   -8.453715|  4.9510e-08|    0.012023|
|        5630|  1.5057e+02|  1.5057e+02|   -8.463892|  5.1490e-08|    0.012023|
|        5640|  1.5057e+02|  1.5057e+02|   -8.474486|  5.2263e-08|    0.012023|
|        5650|  1.5057e+02|  1.5057e+02|   -8.486143|  5.4107e-08|    0.012023|
|        5660|  1.5057e+02|  1.5057e+02|   -8.498988|  5.4146e-08|    0.012023|
|        5670|  1.5057e+02|  1.5057e+02|   -8.512552|  5.4540e-08|    0.012023|
|        5680|  3.1223e+01|  3.1223e+01|   -8.524295|  5.4813e-08|    0.012023|
|        5690|  1.6110e+02|  1.6110e+02|   -8.530205|  5.4667e-08|    0.012023|
|        5700|  1.6110e+02|  1.6110e+02|   -8.544464|  5.5811e-08|    0.012023|
|        5710|  1.6110e+02|  1.6110e+02|   -8.558391|  5.6517e-08|    0.012022|
|        5720|  1.6110e+02|  1.6110e+02|   -8.571980|  5.7086e-08|    0.012022|
|        5730|  1.6110e+02|  1.6110e+02|   -8.585524|  5.8314e-08|    0.012022|
|        5740|  1.6110e+02|  1.6110e+02|   -8.599072|  5.9172e-08|    0.012022|
|        5750|  1.6110e+02|  1.6110e+02|   -8.612429|  5.8867e-08|    0.012022|
|        5760|  1.6110e+02|  1.6110e+02|   -8.625383|  5.9700e-08|    0.012022|
|        5770|  4.0088e+01|  4.0088e+01|   -8.635258|  5.9916e-08|    0.012022|
|        5780|  1.7237e+02|  1.7237e+02|   -8.641276|  5.9726e-08|    0.012022|
|        5790|  1.7237e+02|  1.7237e+02|   -8.654179|  6.1249e-08|    0.012022|
|        5800|  1.7237e+02|  1.7237e+02|   -8.666399|  6.1471e-08|    0.012022|
+-----------------------------------------------------------------------+
|        File Writing Summary       |              Filename             |
+-----------------------------------------------------------------------+
|SU2 binary restart                 |restart_flow_aoa2.dat              |
|Paraview                           |flow_aoa2.vtu                      |
|Paraview surface                   |surface_flow_aoa2.vtu              |
+-----------------------------------------------------------------------+
+-----------------------------------------------------------------------------+
|  Inner_Iter|     Min CFL|     Max CFL|      rms[P]|  Cauchy[CD]|          CD|
+-----------------------------------------------------------------------------+
|        5810|  1.7237e+02|  1.7237e+02|   -8.678036|  6.1277e-08|    0.012022|
|        5820|  1.7237e+02|  1.7237e+02|   -8.689037|  6.2663e-08|    0.012022|
|        5830|  1.7237e+02|  1.7237e+02|   -8.699383|  6.2497e-08|    0.012022|
|        5840|  1.7237e+02|  1.7237e+02|   -8.709119|  6.2174e-08|    0.012022|
|        5850|  1.7237e+02|  1.7237e+02|   -8.718348|  6.1300e-08|    0.012022|
|        5860|  1.7237e+02|  1.7237e+02|   -8.727160|  6.1718e-08|    0.012022|
|        5870|  1.7237e+02|  1.7237e+02|   -8.735699|  6.2234e-08|    0.012022|
|        5880|  1.7237e+02|  1.7237e+02|   -8.744126|  6.1066e-08|    0.012021|
|        5890|  1.7237e+02|  1.7237e+02|   -8.752602|  6.0116e-08|    0.012021|
|        5900|  1.7237e+02|  1.7237e+02|   -8.761279|  5.9233e-08|    0.012021|
|        5910|  1.7237e+02|  1.7237e+02|   -8.770289|  5.8183e-08|    0.012021|
|        5920|  1.7237e+02|  1.7237e+02|   -8.779741|  5.7248e-08|    0.012021|
|        5930|  1.7237e+02|  1.7237e+02|   -8.789691|  5.7151e-08|    0.012021|
|        5940|  1.7237e+02|  1.7237e+02|   -8.800120|  5.7582e-08|    0.012021|
|        5950|  1.7237e+02|  1.7237e+02|   -8.810926|  5.6437e-08|    0.012021|
|        5960|  1.7237e+02|  1.7237e+02|   -8.821941|  5.5463e-08|    0.012021|
|        5970|  1.7237e+02|  1.7237e+02|   -8.832961|  5.4602e-08|    0.012021|
|        5980|  1.7237e+02|  1.7237e+02|   -8.843774|  5.3646e-08|    0.012021|
|        5990|  1.7237e+02|  1.7237e+02|   -8.854171|  5.2727e-08|    0.012021|
|        6000|  1.7237e+02|  1.7237e+02|   -8.863955|  5.1877e-08|    0.012021|
+-----------------------------------------------------------------------+
|        File Writing Summary       |              Filename             |
+-----------------------------------------------------------------------+
|SU2 binary restart                 |restart_flow_aoa2.dat              |
|Paraview                           |flow_aoa2.vtu                      |
|Paraview surface                   |surface_flow_aoa2.vtu              |
+-----------------------------------------------------------------------+
+-----------------------------------------------------------------------------+
|  Inner_Iter|     Min CFL|     Max CFL|      rms[P]|  Cauchy[CD]|          CD|
+-----------------------------------------------------------------------------+
|        6010|  1.7237e+02|  1.7237e+02|   -8.872946|  5.0955e-08|    0.012021|
|        6020|  1.7237e+02|  1.7237e+02|   -8.880989|  5.0843e-08|    0.012021|
|        6030|  1.7237e+02|  1.7237e+02|   -8.887993|  5.0935e-08|    0.012021|
|        6040|  1.7237e+02|  1.7237e+02|   -8.893940|  4.9770e-08|    0.012021|
|        6050|  1.7237e+02|  1.7237e+02|   -8.898894|  4.8600e-08|    0.012021|
|        6060|  1.7237e+02|  1.7237e+02|   -8.902991|  4.7626e-08|    0.012021|
|        6070|  1.7237e+02|  1.7237e+02|   -8.906426|  4.6541e-08|    0.012021|
|        6080|  1.7237e+02|  1.7237e+02|   -8.909426|  4.5538e-08|    0.012021|
|        6090|  1.7237e+02|  1.7237e+02|   -8.912244|  4.4510e-08|    0.012021|
|        6100|  1.7237e+02|  1.7237e+02|   -8.915143|  4.3474e-08|    0.012021|
|        6110|  1.7237e+02|  1.7237e+02|   -8.918376|  4.2466e-08|    0.012021|
|        6120|  1.7237e+02|  1.7237e+02|   -8.922164|  4.1455e-08|    0.012021|
|        6130|  1.7237e+02|  1.7237e+02|   -8.926687|  4.0463e-08|    0.012020|
|        6140|  1.7237e+02|  1.7237e+02|   -8.932084|  3.9489e-08|    0.012020|
|        6150|  1.7237e+02|  1.7237e+02|   -8.938464|  3.8523e-08|    0.012020|
|        6160|  1.7237e+02|  1.7237e+02|   -8.945894|  3.7572e-08|    0.012020|
|        6170|  1.7237e+02|  1.7237e+02|   -8.954418|  3.6634e-08|    0.012020|
|        6180|  1.7237e+02|  1.7237e+02|   -8.964053|  3.5712e-08|    0.012020|
|        6190|  1.7237e+02|  1.7237e+02|   -8.974798|  3.4809e-08|    0.012020|
|        6200|  1.7237e+02|  1.7237e+02|   -8.986637|  3.3926e-08|    0.012020|
+-----------------------------------------------------------------------+
|        File Writing Summary       |              Filename             |
+-----------------------------------------------------------------------+
|SU2 binary restart                 |restart_flow_aoa2.dat              |
|Paraview                           |flow_aoa2.vtu                      |
|Paraview surface                   |surface_flow_aoa2.vtu              |
+-----------------------------------------------------------------------+
+-----------------------------------------------------------------------------+
|  Inner_Iter|     Min CFL|     Max CFL|      rms[P]|  Cauchy[CD]|          CD|
+-----------------------------------------------------------------------------+
|        6210|  1.7237e+02|  1.7237e+02|   -8.999535|  3.3061e-08|    0.012020|
|        6211|  1.7237e+02|  1.7237e+02|   -9.000882|  3.2976e-08|    0.012020|

----------------------------- Solver Exit -------------------------------
All convergence criteria satisfied.
+-----------------------------------------------------------------------+
|      Convergence Field     |     Value    |   Criterion  |  Converged |
+-----------------------------------------------------------------------+
|                      rms[P]|      -9.00088|          < -9|         Yes|
|                  Cauchy[CD]|   3.29759e-08|       < 1e-06|         Yes|
+-----------------------------------------------------------------------+
-------------------------------------------------------------------------
+-----------------------------------------------------------------------+
|        File Writing Summary       |              Filename             |
+-----------------------------------------------------------------------+
|SU2 binary restart                 |restart_flow_aoa2.dat              |
|Paraview                           |flow_aoa2.vtu                      |
|Paraview surface                   |surface_flow_aoa2.vtu              |
+-----------------------------------------------------------------------+

------------------------- Solver Postprocessing -------------------------
Deleted CNumerics container.
Deleted CIntegration container.
Deleted CSolver container.
Deleted CIteration container.
Deleted CInterface container.
Deleted CGeometry container.
Deleted CFreeFormDefBox class.
Deleted CSurfaceMovement class.
Deleted CVolumetricMovement class.
Deleted CConfig container.
Deleted nInst container.
Deleted COutput class.
-------------------------------------------------------------------------

------------------------- Exit Success (SU2_CFD) ------------------------

