
-------------------------------------------------------------------------
|    ___ _   _ ___                                                      |
|   / __| | | |_  )   Release 7.4.0 "Blackbird"                         |
|   \__ \ |_| |/ /                                                      |
|   |___/\___//___|   Suite (Computational Fluid Dynamics Code)         |
|                                                                       |
-------------------------------------------------------------------------
| SU2 Project Website: https://su2code.github.io                        |
|                                                                       |
| The SU2 Project is maintained by the SU2 Foundation                   |
| (http://su2foundation.org)                                            |
-------------------------------------------------------------------------
| Copyright 2012-2022, SU2 Contributors                                 |
|                                                                       |
| SU2 is free software; you can redistribute it and/or                  |
| modify it under the terms of the GNU Lesser General Public            |
| License as published by the Free Software Foundation; either          |
| version 2.1 of the License, or (at your option) any later version.    |
|                                                                       |
| SU2 is distributed in the hope that it will be useful,                |
| but WITHOUT ANY WARRANTY; without even the implied warranty of        |
| MERCHANTABILITY or FITNESS FOR A PARTICULAR PURPOSE. See the GNU      |
| Lesser General Public License for more details.                       |
|                                                                       |
| You should have received a copy of the GNU Lesser General Public      |
| License along with SU2. If not, see <http://www.gnu.org/licenses/>.   |
-------------------------------------------------------------------------

Parsing config file for zone 0

----------------- Physical Case Definition ( Zone 0 ) -------------------
Incompressible RANS equations.
Turbulence model: Spalart-Allmaras-noft2
Hybrid RANS/LES: No Hybrid RANS/LES
No restart solution, use the values at infinity (freestream).
Non-Dimensional simulation using intialization values.
The reference area is 1 m^2.
The semi-span will be computed using the max y(3D) value.
The reference length is 1.00898 m.
Reference origin for moment evaluation is (-0.756, 0, 0).
Surface(s) where the force coefficients are evaluated: AIRFOIL.

Surface(s) plotted in the output file: AIRFOIL.
Input mesh file name: ../meshG9/meshG9.su2

--------------- Space Numerical Integration ( Zone 0 ) ------------------
Flux difference splitting (FDS) upwind scheme for the flow inviscid terms.
First order integration in space.
Average of gradients with correction (viscous flow terms).
Average of gradients with correction (viscous turbulence terms).
Gradient for upwind reconstruction: unweighted Least-Squares.
Gradient for viscous and source terms: Green-Gauss.

--------------- Time Numerical Integration  ( Zone 0 ) ------------------
Local time stepping (steady state simulation).
Euler implicit method for the flow equations.
FGMRES is used for solving the linear system.
Using a ILU(0) preconditioning.
Convergence criteria of the linear solver: 1e-06.
Max number of linear iterations: 10.
CFL adaptation. Factor down: 0.1, factor up: 1.2,
                lower limit: 1, upper limit: 1000,
                acceptable linear residual: 0.001.
Courant-Friedrichs-Lewy number:        2
Euler implicit time integration for the turbulence model.

------------------ Convergence Criteria  ( Zone 0 ) ---------------------
Maximum number of solver subiterations: 9999.
Begin convergence monitoring at iteration 10.
Residual minimum value: 1e-9.
Cauchy series min. value: 1e-06.
Number of Cauchy elements: 250.
Begin windowed time average at iteration 0.

-------------------- Output Information ( Zone 0 ) ----------------------
File writing frequency: 
+------------------------------------+
|                     File| Frequency|
+------------------------------------+
|                  RESTART|       200|
|                 PARAVIEW|       200|
|         SURFACE_PARAVIEW|       200|
+------------------------------------+
Writing the convergence history file every 1 inner iterations.
Writing the screen convergence history every 10 inner iterations.
The tabular file format is CSV (.csv).
Convergence history file name: history_G9.
Forces breakdown file name: forces_breakdown.dat.
Surface file name: surface_flow_G9.
Volume file name: flow_G9.
Restart file name: restart_flow_G9.dat.

------------- Config File Boundary Information ( Zone 0 ) ---------------
+-----------------------------------------------------------------------+
|                        Marker Type|                        Marker Name|
+-----------------------------------------------------------------------+
|                          Far-field|                           FARFIELD|
+-----------------------------------------------------------------------+
|                     Heat flux wall|                            AIRFOIL|
+-----------------------------------------------------------------------+

-------------------- Output Preprocessing ( Zone 0 ) --------------------

WARNING: SURFACE_PRESSURE_DROP can only be computed for at least 2 surfaces (outlet, inlet, ...)

Screen output fields: INNER_ITER, MIN_CFL, MAX_CFL, RMS_PRESSURE, CAUCHY_DRAG, DRAG
History output group(s): INNER_ITER, MIN_CFL, MAX_CFL, RMS_RES, LIFT, DRAG, MOMENT_Z, CAUCHY
Convergence field(s): RMS_PRESSURE, DRAG
Warning: No (valid) fields chosen for time convergence monitoring. Time convergence monitoring inactive.
Volume output fields: COORDINATES, SOLUTION, PRIMITIVE, RESIDUAL, MESH_QUALITY

------------------- Geometry Preprocessing ( Zone 0 ) -------------------
Two dimensional problem.
784445 grid points before partitioning.
782484 volume elements before partitioning.
2 surface markers.
1148 boundary elements in index 0 (Marker = AIRFOIL).
2774 boundary elements in index 1 (Marker = FARFIELD).
Executing the partitioning functions.
Building the graph adjacency structure.
Calling ParMETIS... graph partitioning complete (6217 edge cuts).
Distributing ParMETIS coloring.
Rebalancing vertices.
Rebalancing volume element connectivity.
Rebalancing markers and surface elements.
796899 vertices including ghost points. 
788699 interior elements including halo cells. 
788699 quadrilaterals.
Establishing MPI communication patterns.
Setting point connectivity.
Renumbering points (Reverse Cuthill McKee Ordering).
Recomputing point connectivity.
Setting element connectivity.
Checking the numerical grid orientation.
All volume elements are correctly orientend.
There has been a re-orientation of 1969 LINE surface elements.
Identifying edges and vertices.
Setting the control volume structure.
Area of the computational grid: 3234.14.
Searching for the closest normal neighbors to the surfaces.
Storing a mapping from global to local point index.
Compute the surface curvature.
Max K: 29375.9. Mean K: 80.9815. Standard deviation K: 951.284.
Checking for periodicity.
Computing mesh quality statistics for the dual control volumes.
+--------------------------------------------------------------+
|           Mesh Quality Metric|        Minimum|        Maximum|
+--------------------------------------------------------------+
|    Orthogonality Angle (deg.)|        76.3381|             90|
|     CV Face Area Aspect Ratio|        1.00005|         428730|
|           CV Sub-Volume Ratio|              1|        80.0003|
+--------------------------------------------------------------+
Finding max control volume width.
Communicating number of neighbors.
Wetted area = 2.05984 m.
Area projection in the x-plane = 0.121117 m, y-plane = 1.00888 m.
Max. coordinate in the x-direction = 1.00898 m, y-direction = 0.0759842 m.
Min. coordinate in the x-direction = 2.52722e-07 m, y-direction = -0.0451351 m.
Computing wall distances.

-------------------- Solver Preprocessing ( Zone 0 ) --------------------
Incompressible flow: rho_ref, vel_ref, and temp_ref
are based on the initial values, p_ref = rho_ref*vel_ref^2.
Force coefficients computed using initial values.
The reference area for force coeffs. is 1 m^2.
The reference length for force coeffs. is 1.00898 m.
The pressure is decomposed into thermodynamic and dynamic components.
The initial value of the dynamic pressure is 0.
Mach number: 0.0276747, computed using the Bulk modulus.
For external flows, the initial state is imposed at the far-field.
Angle of attack (deg): 14, computed using the initial velocity.
Side slip angle (deg): 0, computed using the initial velocity.
Reynolds number per meter: 594999, computed using initial values.
Reynolds number is a byproduct of inputs only (not used internally).
SI units only. The grid should be dimensional (meters).
No energy equation.

-- Models:
+------------------------------------------------------------------------------+
|          Viscosity Model|        Conductivity Model|              Fluid Model|
+------------------------------------------------------------------------------+
|       CONSTANT_VISCOSITY|          CONSTANT_PRANDTL|         CONSTANT_DENSITY|
+------------------------------------------------------------------------------+
-- Fluid properties:
+------------------------------------------------------------------------------+
|                  Name|    Dim. value|    Ref. value|      Unit|Non-dim. value|
+------------------------------------------------------------------------------+
|             Viscosity|      1.92e-05|        11.424|   N.s/m^2|   1.68067e-06|
+------------------------------------------------------------------------------+
|        Prandtl (Lam.)|             -|             -|         -|          0.72|
|       Prandtl (Turb.)|             -|             -|         -|           0.9|
+------------------------------------------------------------------------------+
|          Bulk Modulus|        142000|             1|        Pa|        142000|
+------------------------------------------------------------------------------+
-- Initial and free-stream conditions:
+------------------------------------------------------------------------------+
|                  Name|    Dim. value|    Ref. value|      Unit|Non-dim. value|
+------------------------------------------------------------------------------+
|      Dynamic Pressure|             0|       108.756|        Pa|             0|
|        Total Pressure|       54.3781|       108.756|        Pa|           0.5|
|               Density|           1.2|           1.2|    kg/m^3|             1|
|            Velocity-X|        9.2372|       9.51999|       m/s|      0.970296|
|            Velocity-Y|        2.3031|       9.51999|       m/s|      0.241923|
|    Velocity Magnitude|       9.51999|       9.51999|       m/s|             1|
+------------------------------------------------------------------------------+
|             Viscosity|      1.92e-05|        11.424|   N.s/m^2|   1.68067e-06|
|          Conductivity|             -|       3.59312|   W/m^2.K|             -|
|     Turb. Kin. Energy|       1.35945|       90.6301|   m^2/s^2|         0.015|
|     Spec. Dissipation|       8496.58|       9.51999|       1/s|       892.499|
+------------------------------------------------------------------------------+
|           Mach Number|             -|             -|         -|     0.0276747|
|       Reynolds Number|             -|             -|         -|        594999|
+------------------------------------------------------------------------------+
Initialize Jacobian structure (Navier-Stokes). MG level: 0.
Initialize Jacobian structure (SA model).

------------------- Numerics Preprocessing ( Zone 0 ) -------------------

----------------- Integration Preprocessing ( Zone 0 ) ------------------

------------------- Iteration Preprocessing ( Zone 0 ) ------------------
Euler/Navier-Stokes/RANS fluid iteration.

------------------------------ Begin Solver -----------------------------

Simulation Run using the Single-zone Driver
+-----------------------------------------------------------------------------+
|  Inner_Iter|     Min CFL|     Max CFL|      rms[P]|  Cauchy[CD]|          CD|
+-----------------------------------------------------------------------------+
|           0|  2.4000e+00|  2.4000e+00|   -4.655721|  1.0000e+00|    0.670202|
|          10|  1.4860e+01|  1.4860e+01|   -5.390119|  1.1816e-03|    0.910487|
|          20|  6.3896e+00|  6.3896e+00|   -5.613805|  1.2304e-03|    0.899455|
|          30|  3.2969e+00|  3.2969e+00|   -5.608269|  1.3170e-03|    0.880213|
|          40|  2.0413e+01|  2.0413e+01|   -5.577841|  1.3849e-03|    0.865419|
|          50|  1.0533e+01|  1.0533e+01|   -5.536886|  1.5712e-03|    0.826182|
|          60|  5.4348e+00|  5.4348e+00|   -5.493126|  1.8934e-03|    0.762596|
|          70|  3.3651e+01|  3.3651e+01|   -5.460379|  2.2336e-03|    0.700755|
|          80|  1.7363e+01|  1.7363e+01|   -5.428209|  2.6142e-03|    0.637626|
|          90|  7.4657e+00|  7.4657e+00|   -5.400958|  3.2519e-03|    0.544597|
|         100|  3.8522e+01|  3.8522e+01|   -5.382651|  3.8575e-03|    0.468769|
|         110|  3.8522e+01|  3.8522e+01|   -5.448705|  5.4835e-03|    0.314745|
|         120|  3.8522e+01|  3.8522e+01|   -5.558414|  7.6413e-03|    0.186117|
|         130|  1.9876e+01|  1.9876e+01|   -5.579453|  8.5571e-03|    0.148688|
|         140|  1.0256e+01|  1.0256e+01|   -5.582602|  9.4387e-03|    0.119708|
|         150|  5.2917e+00|  5.2917e+00|   -5.576906|  1.0214e-02|    0.098810|
|         160|  3.2765e+01|  3.2765e+01|   -5.571032|  1.0528e-02|    0.090948|
|         170|  1.6906e+01|  1.6906e+01|   -5.571291|  1.0828e-02|    0.083443|
|         180|  4.2068e+01|  4.2068e+01|   -5.586106|  1.1583e-02|    0.064578|
|         190|  1.5074e+01|  1.5074e+01|   -5.589810|  1.2456e-02|    0.042744|
|         200|  4.5010e+01|  4.5010e+01|   -5.585710|  1.4153e-02|    0.000320|
+-----------------------------------------------------------------------+
|        File Writing Summary       |              Filename             |
+-----------------------------------------------------------------------+
|SU2 binary restart                 |restart_flow_G9.dat                |
|Paraview                           |flow_G9.vtu                        |
|Paraview surface                   |surface_flow_G9.vtu                |
+-----------------------------------------------------------------------+
+-----------------------------------------------------------------------------+
|  Inner_Iter|     Min CFL|     Max CFL|      rms[P]|  Cauchy[CD]|          CD|
+-----------------------------------------------------------------------------+
|         210|  4.5010e+01|  4.5010e+01|   -5.601471|  1.6308e-02|   -0.053549|
|         220|  4.5010e+01|  4.5010e+01|   -5.639163|  1.7018e-02|   -0.061393|
|         230|  7.7776e+00|  7.7776e+00|   -5.640419|  1.9050e-02|   -0.010583|
|         240|  4.8157e+01|  4.8157e+01|   -5.641656|  2.0898e-02|    0.035597|
|         250|  2.4848e+01|  2.4848e+01|   -5.657600|  2.2499e-02|    0.075624|
|         260|  1.2821e+01|  1.2821e+01|   -5.686492|  2.3581e-02|    0.140266|
|         270|  4.5940e+01|  4.5940e+01|   -5.689339|  2.5340e-02|    0.222858|
|         280|  6.6154e+00|  6.6154e+00|   -5.676847|  2.6317e-02|    0.292108|
|         290|  4.0961e+01|  4.0961e+01|   -5.678216|  2.6442e-02|    0.306634|
|         300|  2.1135e+01|  2.1135e+01|   -5.685912|  2.6295e-02|    0.308513|
|         310|  4.3825e+01|  4.3825e+01|   -5.694763|  2.6477e-02|    0.272251|
|         320|  4.3825e+01|  4.3825e+01|   -5.718515|  2.7666e-02|    0.187153|
|         330|  4.3825e+01|  4.3825e+01|   -5.763832|  2.9617e-02|    0.106191|
|         340|  1.5703e+01|  1.5703e+01|   -5.783325|  3.0003e-02|    0.080598|
|         350|  4.6890e+01|  4.6890e+01|   -5.788629|  2.9809e-02|    0.072953|
|         360|  4.6890e+01|  4.6890e+01|   -5.779213|  2.9391e-02|    0.103285|
|         370|  1.6801e+01|  1.6801e+01|   -5.765509|  2.7976e-02|    0.124727|
|         380|  8.6692e+00|  8.6692e+00|   -5.758479|  2.7545e-02|    0.140951|
|         390|  5.3677e+01|  5.3677e+01|   -5.761208|  2.6921e-02|    0.150371|
|         400|  2.7696e+01|  2.7696e+01|   -5.774417|  2.6210e-02|    0.152780|
+-----------------------------------------------------------------------+
|        File Writing Summary       |              Filename             |
+-----------------------------------------------------------------------+
|SU2 binary restart                 |restart_flow_G9.dat                |
|Paraview                           |flow_G9.vtu                        |
|Paraview surface                   |surface_flow_G9.vtu                |
+-----------------------------------------------------------------------+
+-----------------------------------------------------------------------------+
|  Inner_Iter|     Min CFL|     Max CFL|      rms[P]|  Cauchy[CD]|          CD|
+-----------------------------------------------------------------------------+
|         410|  4.7859e+01|  4.7859e+01|   -5.826010|  2.6132e-02|    0.144087|
|         420|  1.4291e+01|  1.4291e+01|   -5.865579|  2.6063e-02|    0.136051|
|         430|  7.3737e+00|  7.3737e+00|   -5.890467|  2.5482e-02|    0.130298|
|         440|  4.5656e+01|  4.5656e+01|   -5.895907|  2.4645e-02|    0.129427|
|         450|  4.5656e+01|  4.5656e+01|   -5.887207|  2.3316e-02|    0.141979|
|         460|  1.6359e+01|  1.6359e+01|   -5.878652|  2.1455e-02|    0.152862|
|         470|  4.8849e+01|  4.8849e+01|   -5.878268|  2.1040e-02|    0.164593|
|         480|  1.4586e+01|  1.4586e+01|   -5.891242|  1.9067e-02|    0.164948|
|         490|  7.5261e+00|  7.5261e+00|   -5.905848|  1.7403e-02|    0.157585|
|         500|  4.6600e+01|  4.6600e+01|   -5.917169|  1.6057e-02|    0.147913|
|         510|  2.4045e+01|  2.4045e+01|   -5.937294|  1.4125e-02|    0.136200|
|         520|  8.6156e+00|  8.6156e+00|   -5.979464|  1.2982e-02|    0.115549|
|         530|  5.3345e+01|  5.3345e+01|   -6.001535|  1.2272e-02|    0.105813|
|         540|  5.3345e+01|  5.3345e+01|   -6.057350|  1.2361e-02|    0.099458|
|         550|  1.5929e+01|  1.5929e+01|   -6.064501|  1.2461e-02|    0.102977|
|         560|  8.2189e+00|  8.2189e+00|   -6.057809|  1.2184e-02|    0.109046|
|         570|  5.0890e+01|  5.0890e+01|   -6.052282|  1.0855e-02|    0.114620|
|         580|  1.2663e+01|  1.2663e+01|   -6.063114|  8.8373e-03|    0.124068|
|         590|  5.4448e+01|  5.4448e+01|   -6.096310|  8.0727e-03|    0.132384|
|         600|  5.4448e+01|  5.4448e+01|   -6.259644|  7.9714e-03|    0.143098|
+-----------------------------------------------------------------------+
|        File Writing Summary       |              Filename             |
+-----------------------------------------------------------------------+
|SU2 binary restart                 |restart_flow_G9.dat                |
|Paraview                           |flow_G9.vtu                        |
|Paraview surface                   |surface_flow_G9.vtu                |
+-----------------------------------------------------------------------+
+-----------------------------------------------------------------------------+
|  Inner_Iter|     Min CFL|     Max CFL|      rms[P]|  Cauchy[CD]|          CD|
+-----------------------------------------------------------------------------+
|         610|  5.4448e+01|  5.4448e+01|   -6.381326|  6.8610e-03|    0.142830|
|         620|  1.3548e+01|  1.3548e+01|   -6.347907|  6.2951e-03|    0.136674|
|         630|  6.9907e+00|  6.9907e+00|   -6.320786|  6.0569e-03|    0.128523|
|         640|  4.3285e+01|  4.3285e+01|   -6.316418|  5.9787e-03|    0.122895|
|         650|  5.1942e+01|  5.1942e+01|   -6.359981|  6.4374e-03|    0.107946|
|         660|  2.2334e+01|  2.2334e+01|   -6.411437|  6.4379e-03|    0.101748|
|         670|  6.6689e+00|  6.6689e+00|   -6.463871|  6.5739e-03|    0.092572|
|         680|  4.1292e+01|  4.1292e+01|   -6.464050|  6.5053e-03|    0.089954|
|         690|  1.7755e+01|  1.7755e+01|   -6.448892|  6.5795e-03|    0.087185|
|         700|  9.1611e+00|  9.1611e+00|   -6.438173|  6.2559e-03|    0.087961|
|         710|  5.6723e+01|  5.6723e+01|   -6.433204|  6.0858e-03|    0.091049|
|         720|  2.9268e+01|  2.9268e+01|   -6.430814|  5.9979e-03|    0.096216|
|         730|  1.5102e+01|  1.5102e+01|   -6.432994|  6.2303e-03|    0.103608|
|         740|  7.7921e+00|  7.7921e+00|   -6.452511|  6.4040e-03|    0.113340|
|         750|  4.8246e+01|  4.8246e+01|   -6.469796|  6.3437e-03|    0.118993|
|         760|  5.7896e+01|  5.7896e+01|   -6.543539|  6.3233e-03|    0.128686|
|         770|  1.0004e+01|  1.0004e+01|   -6.594682|  5.7158e-03|    0.128597|
|         780|  6.1945e+01|  6.1945e+01|   -6.611713|  5.4456e-03|    0.125937|
|         790|  3.1962e+01|  3.1962e+01|   -6.631144|  5.2564e-03|    0.123051|
|         800|  1.6492e+01|  1.6492e+01|   -6.656586|  5.2992e-03|    0.117612|
+-----------------------------------------------------------------------+
|        File Writing Summary       |              Filename             |
+-----------------------------------------------------------------------+
|SU2 binary restart                 |restart_flow_G9.dat                |
|Paraview                           |flow_G9.vtu                        |
|Paraview surface                   |surface_flow_G9.vtu                |
+-----------------------------------------------------------------------+
+-----------------------------------------------------------------------------+
|  Inner_Iter|     Min CFL|     Max CFL|      rms[P]|  Cauchy[CD]|          CD|
+-----------------------------------------------------------------------------+
|         810|  5.9093e+01|  5.9093e+01|   -6.670165|  5.3768e-03|    0.108996|
|         820|  8.5094e+00|  8.5094e+00|   -6.643353|  5.6762e-03|    0.096214|
|         830|  5.2688e+01|  5.2688e+01|   -6.627359|  5.5524e-03|    0.091431|
|         840|  6.3225e+01|  6.3225e+01|   -6.620226|  5.6536e-03|    0.082438|
|         850|  3.2623e+01|  3.2623e+01|   -6.640297|  5.3757e-03|    0.081635|
|         860|  1.6833e+01|  1.6833e+01|   -6.692731|  5.3310e-03|    0.082941|
|         870|  6.0314e+01|  6.0314e+01|   -6.783621|  5.4025e-03|    0.089147|
|         880|  6.0314e+01|  6.0314e+01|   -6.852929|  5.7244e-03|    0.103457|
|         890|  1.0422e+01|  1.0422e+01|   -6.757469|  5.8514e-03|    0.111743|
|         900|  6.4532e+01|  6.4532e+01|   -6.726919|  5.4164e-03|    0.114208|
|         910|  3.3297e+01|  3.3297e+01|   -6.718579|  5.1919e-03|    0.114526|
|         920|  8.2854e+00|  8.2854e+00|   -6.764918|  4.9322e-03|    0.111510|
|         930|  5.1301e+01|  5.1301e+01|   -6.801382|  4.9284e-03|    0.108737|
|         940|  2.6470e+01|  2.6470e+01|   -6.858073|  4.9359e-03|    0.105578|
|         950|  5.4889e+01|  5.4889e+01|   -6.916591|  5.1517e-03|    0.098931|
|         960|  5.4889e+01|  5.4889e+01|   -6.844710|  5.2445e-03|    0.093524|
|         970|  5.4889e+01|  5.4889e+01|   -6.795542|  5.1632e-03|    0.090389|
|         980|  5.4889e+01|  5.4889e+01|   -6.847583|  4.9280e-03|    0.088965|
|         990|  5.4889e+01|  5.4889e+01|   -6.972691|  4.6157e-03|    0.090035|
|        1000|  5.4889e+01|  5.4889e+01|   -6.964304|  4.5865e-03|    0.094158|
+-----------------------------------------------------------------------+
|        File Writing Summary       |              Filename             |
+-----------------------------------------------------------------------+
|SU2 binary restart                 |restart_flow_G9.dat                |
|Paraview                           |flow_G9.vtu                        |
|Paraview surface                   |surface_flow_G9.vtu                |
+-----------------------------------------------------------------------+
+-----------------------------------------------------------------------------+
|  Inner_Iter|     Min CFL|     Max CFL|      rms[P]|  Cauchy[CD]|          CD|
+-----------------------------------------------------------------------------+
|        1010|  5.4889e+01|  5.4889e+01|   -6.864462|  4.4857e-03|    0.099435|
|        1020|  5.4889e+01|  5.4889e+01|   -6.850363|  4.5364e-03|    0.102155|
|        1030|  5.4889e+01|  5.4889e+01|   -6.914565|  4.5376e-03|    0.100040|
|        1040|  5.4889e+01|  5.4889e+01|   -6.970517|  4.6729e-03|    0.094337|
|        1050|  5.4889e+01|  5.4889e+01|   -6.969561|  4.7236e-03|    0.088532|
|        1060|  1.3658e+01|  1.3658e+01|   -6.978541|  4.5191e-03|    0.086002|
|        1070|  7.0473e+00|  7.0473e+00|   -7.000139|  4.0578e-03|    0.085079|
|        1080|  4.3635e+01|  4.3635e+01|   -7.016137|  3.8725e-03|    0.084929|
|        1090|  2.2515e+01|  2.2515e+01|   -7.044622|  3.5230e-03|    0.085184|
|        1100|  1.1617e+01|  1.1617e+01|   -7.070818|  3.5264e-03|    0.086071|
|        1110|  5.9941e+01|  5.9941e+01|   -7.079127|  3.5219e-03|    0.087287|
|        1120|  5.9941e+01|  5.9941e+01|   -7.103477|  3.3887e-03|    0.090163|
|        1130|  7.1930e+01|  7.1930e+01|   -7.186828|  2.9328e-03|    0.092989|
|        1140|  3.7114e+01|  3.7114e+01|   -7.233534|  2.6607e-03|    0.093851|
|        1150|  1.9150e+01|  1.9150e+01|   -7.272651|  2.6038e-03|    0.094607|
|        1160|  9.8810e+00|  9.8810e+00|   -7.283201|  2.6049e-03|    0.094968|
|        1170|  6.1181e+01|  6.1181e+01|   -7.271191|  2.5088e-03|    0.094697|
|        1180|  3.1568e+01|  3.1568e+01|   -7.252356|  2.4407e-03|    0.093877|
|        1190|  6.5459e+01|  6.5459e+01|   -7.239726|  2.4592e-03|    0.090460|
|        1200|  6.5459e+01|  6.5459e+01|   -7.244164|  2.3915e-03|    0.085637|
+-----------------------------------------------------------------------+
|        File Writing Summary       |              Filename             |
+-----------------------------------------------------------------------+
|SU2 binary restart                 |restart_flow_G9.dat                |
|Paraview                           |flow_G9.vtu                        |
|Paraview surface                   |surface_flow_G9.vtu                |
+-----------------------------------------------------------------------+
+-----------------------------------------------------------------------------+
|  Inner_Iter|     Min CFL|     Max CFL|      rms[P]|  Cauchy[CD]|          CD|
+-----------------------------------------------------------------------------+
|        1210|  6.5459e+01|  6.5459e+01|   -7.213133|  2.2889e-03|    0.082796|
|        1220|  6.5459e+01|  6.5459e+01|   -7.226697|  2.1950e-03|    0.083138|
|        1230|  6.5459e+01|  6.5459e+01|   -7.339106|  2.2365e-03|    0.085599|
|        1240|  6.5459e+01|  6.5459e+01|   -7.431139|  2.3026e-03|    0.088372|
|        1250|  6.5459e+01|  6.5459e+01|   -7.400857|  2.2079e-03|    0.090127|
|        1260|  1.1311e+01|  1.1311e+01|   -7.427986|  2.0106e-03|    0.090337|
|        1270|  7.0037e+01|  7.0037e+01|   -7.458129|  1.9177e-03|    0.089965|
|        1280|  7.0037e+01|  7.0037e+01|   -7.501313|  1.9108e-03|    0.088013|
|        1290|  7.0037e+01|  7.0037e+01|   -7.431308|  1.7759e-03|    0.085682|
|        1300|  1.0085e+01|  1.0085e+01|   -7.405645|  1.5920e-03|    0.084475|
|        1310|  6.2446e+01|  6.2446e+01|   -7.401060|  1.4993e-03|    0.084262|
|        1320|  3.2221e+01|  3.2221e+01|   -7.391410|  1.4644e-03|    0.084286|
|        1330|  6.6813e+01|  6.6813e+01|   -7.355816|  1.4862e-03|    0.084982|
|        1340|  8.0175e+00|  8.0175e+00|   -7.336131|  1.5296e-03|    0.086322|
|        1350|  4.9642e+01|  4.9642e+01|   -7.346907|  1.5100e-03|    0.086721|
|        1360|  2.5614e+01|  2.5614e+01|   -7.370877|  1.4798e-03|    0.087179|
|        1370|  1.3216e+01|  1.3216e+01|   -7.412662|  1.3827e-03|    0.087630|
|        1380|  8.1833e+01|  8.1833e+01|   -7.445569|  1.2797e-03|    0.087881|
|        1390|  4.2224e+01|  4.2224e+01|   -7.475587|  1.2479e-03|    0.087948|
|        1400|  7.2963e+01|  7.2963e+01|   -7.516393|  1.2281e-03|    0.087691|
+-----------------------------------------------------------------------+
|        File Writing Summary       |              Filename             |
+-----------------------------------------------------------------------+
|SU2 binary restart                 |restart_flow_G9.dat                |
|Paraview                           |flow_G9.vtu                        |
|Paraview surface                   |surface_flow_G9.vtu                |
+-----------------------------------------------------------------------+
+-----------------------------------------------------------------------------+
|  Inner_Iter|     Min CFL|     Max CFL|      rms[P]|  Cauchy[CD]|          CD|
+-----------------------------------------------------------------------------+
|        1410|  7.2963e+01|  7.2963e+01|   -7.563641|  1.2426e-03|    0.086968|
|        1420|  2.6144e+01|  2.6144e+01|   -7.579595|  1.2482e-03|    0.086555|
|        1430|  1.3490e+01|  1.3490e+01|   -7.568992|  1.2281e-03|    0.086239|
|        1440|  8.3525e+01|  8.3525e+01|   -7.553056|  1.0994e-03|    0.086039|
|        1450|  4.3097e+01|  4.3097e+01|   -7.539534|  9.0945e-04|    0.085964|
|        1460|  2.2237e+01|  2.2237e+01|   -7.525754|  7.9718e-04|    0.085965|
|        1470|  1.1474e+01|  1.1474e+01|   -7.520837|  7.6984e-04|    0.086070|
|        1480|  7.1043e+01|  7.1043e+01|   -7.521380|  6.7682e-04|    0.086205|
|        1490|  3.6657e+01|  3.6657e+01|   -7.524565|  5.7252e-04|    0.086371|
|        1500|  7.6011e+01|  7.6011e+01|   -7.534634|  5.1786e-04|    0.086760|
|        1510|  7.6011e+01|  7.6011e+01|   -7.577672|  5.1796e-04|    0.087107|
|        1520|  7.6011e+01|  7.6011e+01|   -7.622815|  5.0711e-04|    0.087194|
|        1530|  9.1213e+01|  9.1213e+01|   -7.633718|  4.3619e-04|    0.087016|
|        1540|  4.7064e+01|  4.7064e+01|   -7.636115|  3.4701e-04|    0.086914|
|        1550|  8.1327e+01|  8.1327e+01|   -7.623370|  3.0849e-04|    0.086670|
|        1560|  8.1327e+01|  8.1327e+01|   -7.604334|  3.0535e-04|    0.086536|
|        1570|  8.1327e+01|  8.1327e+01|   -7.591747|  3.0430e-04|    0.086538|
|        1580|  2.9141e+01|  2.9141e+01|   -7.595523|  2.7741e-04|    0.086562|
|        1590|  1.5036e+01|  1.5036e+01|   -7.600540|  2.2474e-04|    0.086585|
|        1600|  9.3099e+01|  9.3099e+01|   -7.607421|  2.0946e-04|    0.086601|
+-----------------------------------------------------------------------+
|        File Writing Summary       |              Filename             |
+-----------------------------------------------------------------------+
|SU2 binary restart                 |restart_flow_G9.dat                |
|Paraview                           |flow_G9.vtu                        |
|Paraview surface                   |surface_flow_G9.vtu                |
+-----------------------------------------------------------------------+
+-----------------------------------------------------------------------------+
|  Inner_Iter|     Min CFL|     Max CFL|      rms[P]|  Cauchy[CD]|          CD|
+-----------------------------------------------------------------------------+
|        1610|  4.8037e+01|  4.8037e+01|   -7.618649|  1.9140e-04|    0.086603|
|        1620|  8.3008e+01|  8.3008e+01|   -7.644441|  1.7565e-04|    0.086546|
|        1630|  8.3008e+01|  8.3008e+01|   -7.676736|  1.7219e-04|    0.086382|
|        1640|  2.0655e+01|  2.0655e+01|   -7.696904|  1.7417e-04|    0.086265|
|        1650|  1.0658e+01|  1.0658e+01|   -7.711781|  1.6788e-04|    0.086162|
|        1660|  6.5989e+01|  6.5989e+01|   -7.723834|  1.4144e-04|    0.086100|
|        1670|  7.9186e+01|  7.9186e+01|   -7.763721|  1.3118e-04|    0.085944|
|        1680|  7.9186e+01|  7.9186e+01|   -7.808406|  1.2420e-04|    0.085802|
|        1690|  2.8374e+01|  2.8374e+01|   -7.825289|  1.1845e-04|    0.085746|
|        1700|  1.4640e+01|  1.4640e+01|   -7.833088|  1.1789e-04|    0.085685|
|        1710|  7.5541e+01|  7.5541e+01|   -7.832566|  1.1895e-04|    0.085625|
|        1720|  7.5541e+01|  7.5541e+01|   -7.814800|  1.2015e-04|    0.085490|
|        1730|  7.5541e+01|  7.5541e+01|   -7.788584|  1.2081e-04|    0.085338|
|        1740|  7.5541e+01|  7.5541e+01|   -7.766670|  1.2040e-04|    0.085182|
|        1750|  7.5541e+01|  7.5541e+01|   -7.749687|  1.1109e-04|    0.085026|
|        1760|  7.5541e+01|  7.5541e+01|   -7.736439|  1.0338e-04|    0.084872|
|        1770|  7.5541e+01|  7.5541e+01|   -7.726962|  1.0537e-04|    0.084721|
|        1780|  7.5541e+01|  7.5541e+01|   -7.721840|  1.0419e-04|    0.084572|
|        1790|  7.5541e+01|  7.5541e+01|   -7.722714|  1.0606e-04|    0.084424|
|        1800|  7.5541e+01|  7.5541e+01|   -7.730357|  1.0185e-04|    0.084284|
+-----------------------------------------------------------------------+
|        File Writing Summary       |              Filename             |
+-----------------------------------------------------------------------+
|SU2 binary restart                 |restart_flow_G9.dat                |
|Paraview                           |flow_G9.vtu                        |
|Paraview surface                   |surface_flow_G9.vtu                |
+-----------------------------------------------------------------------+
+-----------------------------------------------------------------------------+
|  Inner_Iter|     Min CFL|     Max CFL|      rms[P]|  Cauchy[CD]|          CD|
+-----------------------------------------------------------------------------+
|        1810|  7.5541e+01|  7.5541e+01|   -7.743724|  1.0145e-04|    0.084160|
|        1820|  7.5541e+01|  7.5541e+01|   -7.760008|  1.0510e-04|    0.084046|
|        1830|  7.5541e+01|  7.5541e+01|   -7.776466|  1.0842e-04|    0.083939|
|        1840|  7.5541e+01|  7.5541e+01|   -7.793070|  1.1151e-04|    0.083839|
|        1850|  7.5541e+01|  7.5541e+01|   -7.811693|  1.1475e-04|    0.083742|
|        1860|  7.5541e+01|  7.5541e+01|   -7.833534|  1.1816e-04|    0.083649|
|        1870|  7.5541e+01|  7.5541e+01|   -7.858880|  1.1905e-04|    0.083570|
|        1880|  7.5541e+01|  7.5541e+01|   -7.887233|  1.1503e-04|    0.083506|
|        1890|  7.5541e+01|  7.5541e+01|   -7.916610|  1.1237e-04|    0.083455|
|        1900|  9.0649e+00|  9.0649e+00|   -7.944977|  1.1002e-04|    0.083412|
|        1910|  5.6128e+01|  5.6128e+01|   -7.956941|  1.0809e-04|    0.083398|
|        1920|  2.8961e+01|  2.8961e+01|   -7.968686|  1.0242e-04|    0.083383|
|        1930|  1.4943e+01|  1.4943e+01|   -7.982586|  9.7485e-05|    0.083365|
|        1940|  7.7103e+01|  7.7103e+01|   -7.994665|  9.5986e-05|    0.083346|
|        1950|  7.7103e+01|  7.7103e+01|   -8.023678|  9.5028e-05|    0.083310|
|        1960|  7.7103e+01|  7.7103e+01|   -8.056351|  9.3825e-05|    0.083279|
|        1970|  7.7103e+01|  7.7103e+01|   -8.091262|  8.9221e-05|    0.083259|
|        1980|  7.7103e+01|  7.7103e+01|   -8.125561|  8.3753e-05|    0.083245|
|        1990|  7.7103e+01|  7.7103e+01|   -8.158082|  7.8077e-05|    0.083230|
|        2000|  7.7103e+01|  7.7103e+01|   -8.189243|  7.2264e-05|    0.083220|
+-----------------------------------------------------------------------+
|        File Writing Summary       |              Filename             |
+-----------------------------------------------------------------------+
|SU2 binary restart                 |restart_flow_G9.dat                |
|Paraview                           |flow_G9.vtu                        |
|Paraview surface                   |surface_flow_G9.vtu                |
+-----------------------------------------------------------------------+
+-----------------------------------------------------------------------------+
|  Inner_Iter|     Min CFL|     Max CFL|      rms[P]|  Cauchy[CD]|          CD|
+-----------------------------------------------------------------------------+
|        2010|  7.7103e+01|  7.7103e+01|   -8.218903|  6.6371e-05|    0.083213|
|        2020|  7.7103e+01|  7.7103e+01|   -8.244084|  6.0663e-05|    0.083205|
|        2030|  7.7103e+01|  7.7103e+01|   -8.258729|  5.5033e-05|    0.083196|
|        2040|  7.7103e+01|  7.7103e+01|   -8.256855|  4.9429e-05|    0.083188|
|        2050|  7.7103e+01|  7.7103e+01|   -8.237433|  4.4288e-05|    0.083177|
|        2060|  7.7103e+01|  7.7103e+01|   -8.205921|  3.9739e-05|    0.083167|
|        2070|  7.7103e+01|  7.7103e+01|   -8.170175|  3.5487e-05|    0.083159|
|        2080|  7.7103e+01|  7.7103e+01|   -8.136394|  3.1524e-05|    0.083151|
|        2090|  9.2523e+01|  9.2523e+01|   -8.107750|  2.7921e-05|    0.083141|
|        2100|  4.7740e+01|  4.7740e+01|   -8.099077|  2.4229e-05|    0.083136|
|        2110|  2.4633e+01|  2.4633e+01|   -8.089051|  2.0749e-05|    0.083131|
|        2120|  1.2710e+01|  1.2710e+01|   -8.077985|  1.7822e-05|    0.083124|
|        2130|  7.8697e+01|  7.8697e+01|   -8.073166|  1.5582e-05|    0.083117|
|        2140|  7.8697e+01|  7.8697e+01|   -8.062751|  1.4358e-05|    0.083097|
|        2150|  7.8697e+01|  7.8697e+01|   -8.062331|  1.3434e-05|    0.083076|
|        2160|  7.8697e+01|  7.8697e+01|   -8.070862|  1.3504e-05|    0.083060|
|        2170|  7.8697e+01|  7.8697e+01|   -8.087182|  1.3555e-05|    0.083044|
|        2180|  7.8697e+01|  7.8697e+01|   -8.110177|  1.3627e-05|    0.083024|
|        2190|  1.6319e+01|  1.6319e+01|   -8.131937|  1.3436e-05|    0.083010|
|        2200|  8.4200e+00|  8.4200e+00|   -8.145577|  1.2414e-05|    0.082999|
+-----------------------------------------------------------------------+
|        File Writing Summary       |              Filename             |
+-----------------------------------------------------------------------+
|SU2 binary restart                 |restart_flow_G9.dat                |
|Paraview                           |flow_G9.vtu                        |
|Paraview surface                   |surface_flow_G9.vtu                |
+-----------------------------------------------------------------------+
+-----------------------------------------------------------------------------+
|  Inner_Iter|     Min CFL|     Max CFL|      rms[P]|  Cauchy[CD]|          CD|
+-----------------------------------------------------------------------------+
|        2210|  5.2135e+01|  5.2135e+01|   -8.157282|  1.1376e-05|    0.082995|
|        2220|  7.5074e+01|  7.5074e+01|   -8.186052|  1.1369e-05|    0.082975|
|        2230|  7.5074e+01|  7.5074e+01|   -8.221363|  1.1820e-05|    0.082949|
|        2240|  1.8681e+01|  1.8681e+01|   -8.245401|  1.1756e-05|    0.082937|
|        2250|  9.6389e+00|  9.6389e+00|   -8.263319|  1.1713e-05|    0.082927|
|        2260|  5.9681e+01|  5.9681e+01|   -8.273836|  1.1624e-05|    0.082922|
|        2270|  7.1618e+01|  7.1618e+01|   -8.301743|  1.1957e-05|    0.082906|
|        2280|  7.1618e+01|  7.1618e+01|   -8.329366|  1.2508e-05|    0.082884|
|        2290|  7.1618e+01|  7.1618e+01|   -8.352460|  1.2967e-05|    0.082864|
|        2300|  1.4851e+01|  1.4851e+01|   -8.367165|  1.2970e-05|    0.082853|
|        2310|  7.6626e+00|  7.6626e+00|   -8.374226|  1.2884e-05|    0.082845|
|        2320|  4.7445e+01|  4.7445e+01|   -8.379445|  1.2705e-05|    0.082841|
|        2330|  6.8320e+01|  6.8320e+01|   -8.389412|  1.3021e-05|    0.082826|
|        2340|  6.8320e+01|  6.8320e+01|   -8.401247|  1.3376e-05|    0.082806|
|        2350|  6.8320e+01|  6.8320e+01|   -8.411544|  1.3723e-05|    0.082793|
|        2360|  6.8320e+01|  6.8320e+01|   -8.421123|  1.3938e-05|    0.082782|
|        2370|  6.8320e+01|  6.8320e+01|   -8.430462|  1.4166e-05|    0.082770|
|        2380|  6.8320e+01|  6.8320e+01|   -8.439916|  1.4355e-05|    0.082758|
|        2390|  6.8320e+01|  6.8320e+01|   -8.449797|  1.3929e-05|    0.082748|
|        2400|  6.8320e+01|  6.8320e+01|   -8.458852|  1.3415e-05|    0.082740|
+-----------------------------------------------------------------------+
|        File Writing Summary       |              Filename             |
+-----------------------------------------------------------------------+
|SU2 binary restart                 |restart_flow_G9.dat                |
|Paraview                           |flow_G9.vtu                        |
|Paraview surface                   |surface_flow_G9.vtu                |
+-----------------------------------------------------------------------+
+-----------------------------------------------------------------------------+
|  Inner_Iter|     Min CFL|     Max CFL|      rms[P]|  Cauchy[CD]|          CD|
+-----------------------------------------------------------------------------+
|        2410|  6.8320e+01|  6.8320e+01|   -8.467174|  1.3114e-05|    0.082732|
|        2420|  6.8320e+01|  6.8320e+01|   -8.475704|  1.2762e-05|    0.082725|
|        2430|  6.8320e+01|  6.8320e+01|   -8.484809|  1.2130e-05|    0.082721|
|        2440|  6.8320e+01|  6.8320e+01|   -8.493462|  1.1685e-05|    0.082718|
|        2450|  6.8320e+01|  6.8320e+01|   -8.500571|  1.1385e-05|    0.082715|
|        2460|  6.8320e+01|  6.8320e+01|   -8.506781|  1.1328e-05|    0.082712|
|        2470|  6.8320e+01|  6.8320e+01|   -8.513461|  1.0597e-05|    0.082710|
|        2480|  6.8320e+01|  6.8320e+01|   -8.521085|  9.5673e-06|    0.082710|
|        2490|  6.8320e+01|  6.8320e+01|   -8.529359|  9.0698e-06|    0.082710|
|        2500|  6.8320e+01|  6.8320e+01|   -8.538548|  8.6969e-06|    0.082710|
|        2510|  6.8320e+01|  6.8320e+01|   -8.549741|  8.5488e-06|    0.082711|
|        2520|  6.8320e+01|  6.8320e+01|   -8.563789|  7.9568e-06|    0.082713|
|        2530|  6.8320e+01|  6.8320e+01|   -8.580692|  7.1424e-06|    0.082715|
|        2540|  6.8320e+01|  6.8320e+01|   -8.600023|  6.4209e-06|    0.082717|
|        2550|  6.8320e+01|  6.8320e+01|   -8.621428|  6.0735e-06|    0.082718|
|        2560|  6.8320e+01|  6.8320e+01|   -8.644399|  5.8290e-06|    0.082721|
|        2570|  1.1806e+01|  1.1806e+01|   -8.665277|  5.7605e-06|    0.082722|
|        2580|  7.3098e+01|  7.3098e+01|   -8.673977|  5.1571e-06|    0.082723|
|        2590|  3.7717e+01|  3.7717e+01|   -8.682774|  4.4520e-06|    0.082725|
|        2600|  6.5175e+01|  6.5175e+01|   -8.696196|  3.9900e-06|    0.082727|
+-----------------------------------------------------------------------+
|        File Writing Summary       |              Filename             |
+-----------------------------------------------------------------------+
|SU2 binary restart                 |restart_flow_G9.dat                |
|Paraview                           |flow_G9.vtu                        |
|Paraview surface                   |surface_flow_G9.vtu                |
+-----------------------------------------------------------------------+
+-----------------------------------------------------------------------------+
|  Inner_Iter|     Min CFL|     Max CFL|      rms[P]|  Cauchy[CD]|          CD|
+-----------------------------------------------------------------------------+
|        2610|  6.5175e+01|  6.5175e+01|   -8.710620|  3.6138e-06|    0.082728|
|        2620|  6.5175e+01|  6.5175e+01|   -8.719233|  3.1935e-06|    0.082729|
|        2630|  6.5175e+01|  6.5175e+01|   -8.721410|  2.7907e-06|    0.082732|
|        2640|  6.5175e+01|  6.5175e+01|   -8.717630|  2.5110e-06|    0.082734|
|        2650|  6.5175e+01|  6.5175e+01|   -8.710024|  2.2813e-06|    0.082736|
|        2660|  6.5175e+01|  6.5175e+01|   -8.700844|  2.0244e-06|    0.082738|
|        2670|  6.5175e+01|  6.5175e+01|   -8.692103|  1.8136e-06|    0.082740|
|        2680|  6.5175e+01|  6.5175e+01|   -8.685313|  1.7112e-06|    0.082742|
|        2690|  6.5175e+01|  6.5175e+01|   -8.681277|  1.6552e-06|    0.082743|
|        2700|  6.5175e+01|  6.5175e+01|   -8.680607|  1.5819e-06|    0.082745|
|        2710|  6.5175e+01|  6.5175e+01|   -8.683763|  1.5374e-06|    0.082746|
|        2720|  6.5175e+01|  6.5175e+01|   -8.690982|  1.5609e-06|    0.082748|
|        2730|  1.9461e+01|  1.9461e+01|   -8.698519|  1.5843e-06|    0.082749|
|        2740|  1.0042e+01|  1.0042e+01|   -8.704792|  1.6087e-06|    0.082750|
|        2750|  6.2175e+01|  6.2175e+01|   -8.709713|  1.6332e-06|    0.082751|
|        2760|  6.2175e+01|  6.2175e+01|   -8.722371|  1.6465e-06|    0.082752|
|        2770|  6.2175e+01|  6.2175e+01|   -8.739521|  1.6218e-06|    0.082753|
|        2780|  6.2175e+01|  6.2175e+01|   -8.758265|  1.6040e-06|    0.082755|
|        2790|  6.2175e+01|  6.2175e+01|   -8.778877|  1.5985e-06|    0.082756|
|        2800|  6.2175e+01|  6.2175e+01|   -8.800290|  1.6027e-06|    0.082759|
+-----------------------------------------------------------------------+
|        File Writing Summary       |              Filename             |
+-----------------------------------------------------------------------+
|SU2 binary restart                 |restart_flow_G9.dat                |
|Paraview                           |flow_G9.vtu                        |
|Paraview surface                   |surface_flow_G9.vtu                |
+-----------------------------------------------------------------------+
+-----------------------------------------------------------------------------+
|  Inner_Iter|     Min CFL|     Max CFL|      rms[P]|  Cauchy[CD]|          CD|
+-----------------------------------------------------------------------------+
|        2810|  1.8565e+01|  1.8565e+01|   -8.814305|  1.5633e-06|    0.082760|
|        2820|  9.5792e+00|  9.5792e+00|   -8.825436|  1.5384e-06|    0.082761|
|        2830|  5.9312e+01|  5.9312e+01|   -8.832692|  1.5499e-06|    0.082762|
|        2840|  5.9312e+01|  5.9312e+01|   -8.849683|  1.5545e-06|    0.082763|
|        2850|  5.9312e+01|  5.9312e+01|   -8.868544|  1.5331e-06|    0.082765|
|        2860|  5.9312e+01|  5.9312e+01|   -8.886202|  1.5508e-06|    0.082766|
|        2870|  5.9312e+01|  5.9312e+01|   -8.902717|  1.5525e-06|    0.082768|
|        2880|  5.9312e+01|  5.9312e+01|   -8.918177|  1.5445e-06|    0.082770|
|        2890|  5.9312e+01|  5.9312e+01|   -8.932326|  1.5424e-06|    0.082773|
|        2900|  5.9312e+01|  5.9312e+01|   -8.945297|  1.5546e-06|    0.082775|
|        2910|  5.9312e+01|  5.9312e+01|   -8.957495|  1.5787e-06|    0.082777|
|        2920|  5.9312e+00|  5.9312e+00|   -8.969096|  1.5988e-06|    0.082780|
|        2930|  3.6725e+01|  3.6725e+01|   -8.975225|  1.5491e-06|    0.082780|
|        2940|  1.8949e+01|  1.8949e+01|   -8.980549|  1.5282e-06|    0.082781|
|        2950|  5.6582e+01|  5.6582e+01|   -8.985318|  1.5441e-06|    0.082783|
|        2960|  5.6582e+01|  5.6582e+01|   -8.995061|  1.5575e-06|    0.082785|
|        2970|  5.6582e+01|  5.6582e+01|   -9.005349|  1.5634e-06|    0.082787|
|        2980|  5.6582e+01|  5.6582e+01|   -9.014349|  1.6226e-06|    0.082790|
|        2990|  5.6582e+01|  5.6582e+01|   -9.022549|  1.6999e-06|    0.082793|
|        3000|  5.6582e+01|  5.6582e+01|   -9.030489|  1.7796e-06|    0.082795|
+-----------------------------------------------------------------------+
|        File Writing Summary       |              Filename             |
+-----------------------------------------------------------------------+
|SU2 binary restart                 |restart_flow_G9.dat                |
|Paraview                           |flow_G9.vtu                        |
|Paraview surface                   |surface_flow_G9.vtu                |
+-----------------------------------------------------------------------+
+-----------------------------------------------------------------------------+
|  Inner_Iter|     Min CFL|     Max CFL|      rms[P]|  Cauchy[CD]|          CD|
+-----------------------------------------------------------------------------+
|        3010|  5.6582e+01|  5.6582e+01|   -9.037900|  1.8395e-06|    0.082798|
|        3020|  5.6582e+01|  5.6582e+01|   -9.044863|  1.9083e-06|    0.082801|
|        3030|  5.6582e+01|  5.6582e+01|   -9.051122|  1.9609e-06|    0.082804|
|        3040|  5.6582e+01|  5.6582e+01|   -9.056276|  1.9989e-06|    0.082806|
|        3050|  5.6582e+01|  5.6582e+01|   -9.060573|  2.0208e-06|    0.082809|
|        3060|  5.6582e+01|  5.6582e+01|   -9.064444|  2.0793e-06|    0.082812|
|        3070|  5.6582e+01|  5.6582e+01|   -9.068274|  2.1470e-06|    0.082814|
|        3080|  5.6582e+01|  5.6582e+01|   -9.072397|  2.2209e-06|    0.082817|
|        3090|  5.6582e+01|  5.6582e+01|   -9.076923|  2.2685e-06|    0.082820|
|        3100|  5.6582e+01|  5.6582e+01|   -9.081899|  2.3257e-06|    0.082823|
|        3110|  5.6582e+01|  5.6582e+01|   -9.087571|  2.3690e-06|    0.082826|
|        3120|  5.6582e+01|  5.6582e+01|   -9.094270|  2.4015e-06|    0.082828|
|        3130|  5.6582e+01|  5.6582e+01|   -9.102197|  2.4219e-06|    0.082831|
|        3140|  5.6582e+01|  5.6582e+01|   -9.111368|  2.4241e-06|    0.082833|
|        3150|  2.9195e+01|  2.9195e+01|   -9.118044|  2.3551e-06|    0.082834|
|        3160|  1.5064e+01|  1.5064e+01|   -9.123169|  2.3070e-06|    0.082835|
|        3170|  5.3977e+01|  5.3977e+01|   -9.126955|  2.2825e-06|    0.082837|
|        3180|  5.3977e+01|  5.3977e+01|   -9.137117|  2.3495e-06|    0.082839|
|        3190|  5.3977e+01|  5.3977e+01|   -9.148970|  2.3973e-06|    0.082841|
|        3200|  5.3977e+01|  5.3977e+01|   -9.161245|  2.4131e-06|    0.082844|
+-----------------------------------------------------------------------+
|        File Writing Summary       |              Filename             |
+-----------------------------------------------------------------------+
|SU2 binary restart                 |restart_flow_G9.dat                |
|Paraview                           |flow_G9.vtu                        |
|Paraview surface                   |surface_flow_G9.vtu                |
+-----------------------------------------------------------------------+
+-----------------------------------------------------------------------------+
|  Inner_Iter|     Min CFL|     Max CFL|      rms[P]|  Cauchy[CD]|          CD|
+-----------------------------------------------------------------------------+
|        3210|  5.3977e+01|  5.3977e+01|   -9.173535|  2.4172e-06|    0.082846|
|        3220|  5.3977e+01|  5.3977e+01|   -9.185118|  2.4229e-06|    0.082848|
|        3230|  5.3977e+01|  5.3977e+01|   -9.195519|  2.4168e-06|    0.082850|
|        3240|  5.3977e+01|  5.3977e+01|   -9.204391|  2.3938e-06|    0.082852|
|        3250|  5.3977e+01|  5.3977e+01|   -9.211588|  2.3584e-06|    0.082854|
|        3260|  1.9341e+01|  1.9341e+01|   -9.217378|  2.2765e-06|    0.082855|
|        3270|  9.9794e+00|  9.9794e+00|   -9.220208|  2.2011e-06|    0.082856|
|        3280|  5.1492e+01|  5.1492e+01|   -9.221258|  2.1332e-06|    0.082857|
|        3290|  5.1492e+01|  5.1492e+01|   -9.222898|  2.1019e-06|    0.082859|
|        3300|  5.1492e+01|  5.1492e+01|   -9.225821|  2.0719e-06|    0.082861|
|        3310|  5.1492e+01|  5.1492e+01|   -9.228236|  2.0372e-06|    0.082863|
|        3320|  5.1492e+01|  5.1492e+01|   -9.230348|  2.0010e-06|    0.082864|
|        3330|  5.1492e+01|  5.1492e+01|   -9.232474|  1.9610e-06|    0.082866|
|        3340|  5.1492e+01|  5.1492e+01|   -9.234871|  1.9200e-06|    0.082868|
|        3350|  5.1492e+01|  5.1492e+01|   -9.237904|  1.8820e-06|    0.082870|
|        3360|  5.1492e+01|  5.1492e+01|   -9.241547|  1.8473e-06|    0.082872|
|        3370|  5.1492e+01|  5.1492e+01|   -9.245839|  1.8140e-06|    0.082874|
|        3380|  5.1492e+01|  5.1492e+01|   -9.250943|  1.7816e-06|    0.082875|
|        3390|  5.1492e+01|  5.1492e+01|   -9.257083|  1.7518e-06|    0.082877|
|        3400|  5.1492e+01|  5.1492e+01|   -9.264216|  1.7907e-06|    0.082879|
+-----------------------------------------------------------------------+
|        File Writing Summary       |              Filename             |
+-----------------------------------------------------------------------+
|SU2 binary restart                 |restart_flow_G9.dat                |
|Paraview                           |flow_G9.vtu                        |
|Paraview surface                   |surface_flow_G9.vtu                |
+-----------------------------------------------------------------------+
+-----------------------------------------------------------------------------+
|  Inner_Iter|     Min CFL|     Max CFL|      rms[P]|  Cauchy[CD]|          CD|
+-----------------------------------------------------------------------------+
|        3410|  5.1492e+01|  5.1492e+01|   -9.272145|  1.8167e-06|    0.082881|
|        3420|  5.1492e+01|  5.1492e+01|   -9.280667|  1.8244e-06|    0.082882|
|        3430|  5.1492e+01|  5.1492e+01|   -9.289455|  1.8087e-06|    0.082884|
|        3440|  5.1492e+01|  5.1492e+01|   -9.298351|  1.7956e-06|    0.082886|
|        3450|  7.4148e+00|  7.4148e+00|   -9.308263|  1.7687e-06|    0.082888|
|        3460|  4.5911e+01|  4.5911e+01|   -9.311996|  1.7058e-06|    0.082888|
|        3470|  2.3689e+01|  2.3689e+01|   -9.316265|  1.6445e-06|    0.082889|
|        3480|  4.9121e+01|  4.9121e+01|   -9.320413|  1.6148e-06|    0.082891|
|        3490|  4.9121e+01|  4.9121e+01|   -9.328369|  1.5987e-06|    0.082892|
|        3500|  4.9121e+01|  4.9121e+01|   -9.336710|  1.5886e-06|    0.082894|
|        3510|  4.9121e+01|  4.9121e+01|   -9.344580|  1.6225e-06|    0.082896|
|        3520|  4.9121e+01|  4.9121e+01|   -9.352100|  1.6562e-06|    0.082898|
|        3530|  4.9121e+01|  4.9121e+01|   -9.359519|  1.6885e-06|    0.082899|
|        3540|  4.9121e+01|  4.9121e+01|   -9.366826|  1.6910e-06|    0.082901|
|        3550|  4.9121e+01|  4.9121e+01|   -9.373684|  1.6960e-06|    0.082903|
|        3560|  4.9121e+01|  4.9121e+01|   -9.380285|  1.7058e-06|    0.082905|
|        3570|  4.9121e+01|  4.9121e+01|   -9.386711|  1.7117e-06|    0.082907|
|        3580|  4.9121e+01|  4.9121e+01|   -9.392913|  1.7118e-06|    0.082909|
|        3590|  4.9121e+01|  4.9121e+01|   -9.399092|  1.7084e-06|    0.082911|
|        3600|  4.9121e+01|  4.9121e+01|   -9.405326|  1.7083e-06|    0.082913|
+-----------------------------------------------------------------------+
|        File Writing Summary       |              Filename             |
+-----------------------------------------------------------------------+
|SU2 binary restart                 |restart_flow_G9.dat                |
|Paraview                           |flow_G9.vtu                        |
|Paraview surface                   |surface_flow_G9.vtu                |
+-----------------------------------------------------------------------+
+-----------------------------------------------------------------------------+
|  Inner_Iter|     Min CFL|     Max CFL|      rms[P]|  Cauchy[CD]|          CD|
+-----------------------------------------------------------------------------+
|        3610|  4.9121e+01|  4.9121e+01|   -9.411480|  1.7144e-06|    0.082915|
|        3620|  4.9121e+01|  4.9121e+01|   -9.417549|  1.7245e-06|    0.082917|
|        3630|  4.9121e+01|  4.9121e+01|   -9.423575|  1.7364e-06|    0.082919|
|        3640|  4.9121e+01|  4.9121e+01|   -9.429530|  1.7489e-06|    0.082921|
|        3650|  4.9121e+01|  4.9121e+01|   -9.435431|  1.7619e-06|    0.082923|
|        3660|  4.9121e+01|  4.9121e+01|   -9.441307|  1.7752e-06|    0.082925|
|        3670|  1.7601e+01|  1.7601e+01|   -9.447177|  1.7401e-06|    0.082926|
|        3680|  9.0817e+00|  9.0817e+00|   -9.450441|  1.7058e-06|    0.082927|
|        3690|  4.6860e+01|  4.6860e+01|   -9.452095|  1.6697e-06|    0.082928|
|        3700|  4.6860e+01|  4.6860e+01|   -9.455085|  1.6846e-06|    0.082930|
|        3710|  4.6860e+01|  4.6860e+01|   -9.460194|  1.7373e-06|    0.082932|
|        3720|  4.6860e+01|  4.6860e+01|   -9.465423|  1.7865e-06|    0.082934|
|        3730|  4.6860e+01|  4.6860e+01|   -9.470239|  1.8056e-06|    0.082936|
|        3740|  4.6860e+01|  4.6860e+01|   -9.474824|  1.8173e-06|    0.082938|
|        3750|  4.6860e+01|  4.6860e+01|   -9.479298|  1.8301e-06|    0.082940|
|        3760|  4.6860e+01|  4.6860e+01|   -9.483737|  1.8467e-06|    0.082942|
|        3770|  4.6860e+01|  4.6860e+01|   -9.488083|  1.8624e-06|    0.082944|
|        3780|  4.6860e+01|  4.6860e+01|   -9.492447|  1.8753e-06|    0.082946|
|        3790|  4.6860e+01|  4.6860e+01|   -9.496790|  1.8833e-06|    0.082948|
|        3800|  4.6860e+01|  4.6860e+01|   -9.501060|  1.8879e-06|    0.082950|
+-----------------------------------------------------------------------+
|        File Writing Summary       |              Filename             |
+-----------------------------------------------------------------------+
|SU2 binary restart                 |restart_flow_G9.dat                |
|Paraview                           |flow_G9.vtu                        |
|Paraview surface                   |surface_flow_G9.vtu                |
+-----------------------------------------------------------------------+
+-----------------------------------------------------------------------------+
|  Inner_Iter|     Min CFL|     Max CFL|      rms[P]|  Cauchy[CD]|          CD|
+-----------------------------------------------------------------------------+
|        3810|  4.6860e+01|  4.6860e+01|   -9.505338|  1.8922e-06|    0.082952|
|        3820|  4.6860e+01|  4.6860e+01|   -9.509641|  1.8980e-06|    0.082955|
|        3830|  4.6860e+01|  4.6860e+01|   -9.513972|  1.9052e-06|    0.082957|
|        3840|  4.6860e+01|  4.6860e+01|   -9.518376|  1.9130e-06|    0.082959|
|        3850|  4.6860e+01|  4.6860e+01|   -9.522858|  1.9213e-06|    0.082961|
|        3860|  4.6860e+01|  4.6860e+01|   -9.527444|  1.9304e-06|    0.082963|
|        3870|  4.6860e+01|  4.6860e+01|   -9.532188|  1.9388e-06|    0.082965|
|        3880|  4.6860e+01|  4.6860e+01|   -9.537081|  1.9447e-06|    0.082967|
|        3890|  4.6860e+01|  4.6860e+01|   -9.542056|  1.9481e-06|    0.082969|
|        3900|  4.6860e+01|  4.6860e+01|   -9.547021|  1.9507e-06|    0.082972|
|        3910|  4.6860e+01|  4.6860e+01|   -9.551862|  1.9537e-06|    0.082974|
|        3920|  4.6860e+01|  4.6860e+01|   -9.556499|  2.0034e-06|    0.082976|
|        3930|  4.6860e+01|  4.6860e+01|   -9.560918|  2.0481e-06|    0.082978|
|        3940|  6.7478e+00|  6.7478e+00|   -9.566679|  2.0769e-06|    0.082980|
|        3950|  4.1781e+01|  4.1781e+01|   -9.568896|  2.0318e-06|    0.082981|
|        3960|  2.1558e+01|  2.1558e+01|   -9.571323|  1.9836e-06|    0.082981|
|        3970|  4.4702e+01|  4.4702e+01|   -9.571409|  1.9752e-06|    0.082983|
|        3980|  4.4702e+01|  4.4702e+01|   -9.574455|  1.9791e-06|    0.082985|
|        3990|  4.4702e+01|  4.4702e+01|   -9.578061|  1.9843e-06|    0.082987|
|        4000|  4.4702e+01|  4.4702e+01|   -9.581680|  1.9856e-06|    0.082989|
+-----------------------------------------------------------------------+
|        File Writing Summary       |              Filename             |
+-----------------------------------------------------------------------+
|SU2 binary restart                 |restart_flow_G9.dat                |
|Paraview                           |flow_G9.vtu                        |
|Paraview surface                   |surface_flow_G9.vtu                |
+-----------------------------------------------------------------------+
+-----------------------------------------------------------------------------+
|  Inner_Iter|     Min CFL|     Max CFL|      rms[P]|  Cauchy[CD]|          CD|
+-----------------------------------------------------------------------------+
|        4010|  4.4702e+01|  4.4702e+01|   -9.585175|  1.9845e-06|    0.082992|
|        4020|  4.4702e+01|  4.4702e+01|   -9.589195|  1.9825e-06|    0.082994|
|        4030|  4.4702e+01|  4.4702e+01|   -9.592890|  1.9826e-06|    0.082996|
|        4040|  4.4702e+01|  4.4702e+01|   -9.596598|  1.9850e-06|    0.082998|
|        4050|  4.4702e+01|  4.4702e+01|   -9.600122|  1.9886e-06|    0.083000|
|        4060|  4.4702e+01|  4.4702e+01|   -9.603490|  1.9919e-06|    0.083002|
|        4070|  4.4702e+01|  4.4702e+01|   -9.606816|  1.9944e-06|    0.083004|
|        4080|  4.4702e+01|  4.4702e+01|   -9.610189|  1.9964e-06|    0.083007|
|        4090|  4.4702e+01|  4.4702e+01|   -9.613805|  1.9984e-06|    0.083009|
|        4100|  4.4702e+01|  4.4702e+01|   -9.617738|  2.0002e-06|    0.083011|
|        4110|  4.4702e+01|  4.4702e+01|   -9.621922|  2.0015e-06|    0.083013|
|        4120|  4.4702e+01|  4.4702e+01|   -9.626352|  2.0026e-06|    0.083015|
|        4130|  4.4702e+01|  4.4702e+01|   -9.630986|  2.0042e-06|    0.083017|
|        4140|  4.4702e+01|  4.4702e+01|   -9.635707|  2.0066e-06|    0.083020|
|        4150|  4.4702e+01|  4.4702e+01|   -9.640470|  2.0094e-06|    0.083022|
|        4160|  4.4702e+01|  4.4702e+01|   -9.645268|  2.0120e-06|    0.083024|
|        4170|  4.4702e+01|  4.4702e+01|   -9.650047|  2.0146e-06|    0.083026|
|        4180|  4.4702e+01|  4.4702e+01|   -9.654761|  2.0174e-06|    0.083029|
|        4190|  4.4702e+01|  4.4702e+01|   -9.659419|  2.0358e-06|    0.083031|
|        4200|  4.4702e+01|  4.4702e+01|   -9.664040|  2.0922e-06|    0.083033|
+-----------------------------------------------------------------------+
|        File Writing Summary       |              Filename             |
+-----------------------------------------------------------------------+
|SU2 binary restart                 |restart_flow_G9.dat                |
|Paraview                           |flow_G9.vtu                        |
|Paraview surface                   |surface_flow_G9.vtu                |
+-----------------------------------------------------------------------+
+-----------------------------------------------------------------------------+
|  Inner_Iter|     Min CFL|     Max CFL|      rms[P]|  Cauchy[CD]|          CD|
+-----------------------------------------------------------------------------+
|        4210|  4.4702e+01|  4.4702e+01|   -9.668652|  2.1490e-06|    0.083035|
|        4220|  4.4702e+01|  4.4702e+01|   -9.673285|  2.1685e-06|    0.083037|
|        4230|  4.4702e+01|  4.4702e+01|   -9.677929|  2.1761e-06|    0.083040|
|        4240|  4.4702e+01|  4.4702e+01|   -9.682533|  2.1814e-06|    0.083042|
|        4250|  4.4702e+01|  4.4702e+01|   -9.687055|  2.1888e-06|    0.083044|
|        4260|  4.4702e+01|  4.4702e+01|   -9.691492|  2.1962e-06|    0.083046|
|        4270|  4.4702e+01|  4.4702e+01|   -9.695855|  2.2033e-06|    0.083049|
|        4280|  4.4702e+01|  4.4702e+01|   -9.700149|  2.2091e-06|    0.083051|
|        4290|  4.4702e+01|  4.4702e+01|   -9.704375|  2.2138e-06|    0.083053|
|        4300|  4.4702e+01|  4.4702e+01|   -9.708541|  2.2185e-06|    0.083056|
|        4310|  4.4702e+01|  4.4702e+01|   -9.712667|  2.2236e-06|    0.083058|
|        4320|  4.4702e+01|  4.4702e+01|   -9.716779|  2.2295e-06|    0.083060|
|        4330|  4.4702e+01|  4.4702e+01|   -9.720894|  2.2357e-06|    0.083062|
|        4340|  4.4702e+01|  4.4702e+01|   -9.725020|  2.2418e-06|    0.083065|
|        4350|  4.4702e+01|  4.4702e+01|   -9.729157|  2.2473e-06|    0.083067|
|        4360|  4.4702e+01|  4.4702e+01|   -9.733300|  2.2524e-06|    0.083069|
|        4370|  4.4702e+01|  4.4702e+01|   -9.737441|  2.2572e-06|    0.083072|
|        4380|  4.4702e+01|  4.4702e+01|   -9.741568|  2.2617e-06|    0.083074|
|        4390|  4.4702e+01|  4.4702e+01|   -9.745670|  2.2657e-06|    0.083076|
|        4400|  4.4702e+01|  4.4702e+01|   -9.749747|  2.2695e-06|    0.083079|
+-----------------------------------------------------------------------+
|        File Writing Summary       |              Filename             |
+-----------------------------------------------------------------------+
|SU2 binary restart                 |restart_flow_G9.dat                |
|Paraview                           |flow_G9.vtu                        |
|Paraview surface                   |surface_flow_G9.vtu                |
+-----------------------------------------------------------------------+
+-----------------------------------------------------------------------------+
|  Inner_Iter|     Min CFL|     Max CFL|      rms[P]|  Cauchy[CD]|          CD|
+-----------------------------------------------------------------------------+
|        4410|  4.4702e+01|  4.4702e+01|   -9.753805|  2.2734e-06|    0.083081|
|        4420|  4.4702e+01|  4.4702e+01|   -9.757851|  2.2777e-06|    0.083083|
|        4430|  4.4702e+01|  4.4702e+01|   -9.761891|  2.2820e-06|    0.083086|
|        4440|  4.4702e+01|  4.4702e+01|   -9.765922|  2.2861e-06|    0.083088|
|        4450|  4.4702e+01|  4.4702e+01|   -9.769938|  2.2900e-06|    0.083090|
|        4460|  4.4702e+01|  4.4702e+01|   -9.773931|  2.2938e-06|    0.083093|
|        4470|  4.4702e+01|  4.4702e+01|   -9.777900|  2.2976e-06|    0.083095|
|        4480|  4.4702e+01|  4.4702e+01|   -9.781843|  2.3014e-06|    0.083097|
|        4490|  4.4702e+01|  4.4702e+01|   -9.785762|  2.3048e-06|    0.083100|
|        4500|  4.4702e+01|  4.4702e+01|   -9.789652|  2.3077e-06|    0.083102|
|        4510|  4.4702e+01|  4.4702e+01|   -9.793512|  2.3100e-06|    0.083104|
|        4520|  4.4702e+01|  4.4702e+01|   -9.797341|  2.3119e-06|    0.083107|
|        4530|  4.4702e+01|  4.4702e+01|   -9.801138|  2.3138e-06|    0.083109|
|        4540|  4.4702e+01|  4.4702e+01|   -9.804902|  2.3157e-06|    0.083111|
|        4550|  4.4702e+01|  4.4702e+01|   -9.808633|  2.3177e-06|    0.083114|
|        4560|  4.4702e+01|  4.4702e+01|   -9.812333|  2.3195e-06|    0.083116|
|        4570|  4.4702e+01|  4.4702e+01|   -9.816008|  2.3211e-06|    0.083118|
|        4580|  4.4702e+01|  4.4702e+01|   -9.819665|  2.3226e-06|    0.083121|
|        4590|  4.4702e+01|  4.4702e+01|   -9.823315|  2.3238e-06|    0.083123|
|        4600|  4.4702e+01|  4.4702e+01|   -9.826963|  2.3248e-06|    0.083125|
+-----------------------------------------------------------------------+
|        File Writing Summary       |              Filename             |
+-----------------------------------------------------------------------+
|SU2 binary restart                 |restart_flow_G9.dat                |
|Paraview                           |flow_G9.vtu                        |
|Paraview surface                   |surface_flow_G9.vtu                |
+-----------------------------------------------------------------------+
+-----------------------------------------------------------------------------+
|  Inner_Iter|     Min CFL|     Max CFL|      rms[P]|  Cauchy[CD]|          CD|
+-----------------------------------------------------------------------------+
|        4610|  4.4702e+01|  4.4702e+01|   -9.830610|  2.3257e-06|    0.083127|
|        4620|  4.4702e+01|  4.4702e+01|   -9.834250|  2.3263e-06|    0.083130|
|        4630|  4.4702e+01|  4.4702e+01|   -9.837872|  2.3267e-06|    0.083132|
|        4640|  4.4702e+01|  4.4702e+01|   -9.841469|  2.3268e-06|    0.083134|
|        4650|  4.4702e+01|  4.4702e+01|   -9.845035|  2.3269e-06|    0.083137|
|        4660|  4.4702e+01|  4.4702e+01|   -9.848570|  2.3268e-06|    0.083139|
|        4670|  4.4702e+01|  4.4702e+01|   -9.852083|  2.3266e-06|    0.083141|
|        4680|  4.4702e+01|  4.4702e+01|   -9.855584|  2.3264e-06|    0.083144|
|        4690|  4.4702e+01|  4.4702e+01|   -9.859086|  2.3261e-06|    0.083146|
|        4700|  4.4702e+01|  4.4702e+01|   -9.862597|  2.3256e-06|    0.083148|
|        4710|  4.4702e+01|  4.4702e+01|   -9.866123|  2.3250e-06|    0.083151|
|        4720|  4.4702e+01|  4.4702e+01|   -9.869665|  2.3241e-06|    0.083153|
|        4730|  4.4702e+01|  4.4702e+01|   -9.873220|  2.3231e-06|    0.083155|
|        4740|  4.4702e+01|  4.4702e+01|   -9.876785|  2.3219e-06|    0.083158|
|        4750|  4.4702e+01|  4.4702e+01|   -9.880356|  2.3206e-06|    0.083160|
|        4760|  4.4702e+01|  4.4702e+01|   -9.883934|  2.3192e-06|    0.083162|
|        4770|  4.4702e+01|  4.4702e+01|   -9.887521|  2.3177e-06|    0.083164|
|        4780|  4.4702e+01|  4.4702e+01|   -9.891125|  2.3163e-06|    0.083167|
|        4790|  4.4702e+01|  4.4702e+01|   -9.894756|  2.3147e-06|    0.083169|
|        4800|  4.4702e+01|  4.4702e+01|   -9.898421|  2.3132e-06|    0.083171|
+-----------------------------------------------------------------------+
|        File Writing Summary       |              Filename             |
+-----------------------------------------------------------------------+
|SU2 binary restart                 |restart_flow_G9.dat                |
|Paraview                           |flow_G9.vtu                        |
|Paraview surface                   |surface_flow_G9.vtu                |
+-----------------------------------------------------------------------+
+-----------------------------------------------------------------------------+
|  Inner_Iter|     Min CFL|     Max CFL|      rms[P]|  Cauchy[CD]|          CD|
+-----------------------------------------------------------------------------+
|        4810|  4.4702e+01|  4.4702e+01|   -9.902124|  2.3116e-06|    0.083174|
|        4820|  4.4702e+01|  4.4702e+01|   -9.905864|  2.3099e-06|    0.083176|
|        4830|  4.4702e+01|  4.4702e+01|   -9.909635|  2.3081e-06|    0.083178|
|        4840|  4.4702e+01|  4.4702e+01|   -9.913427|  2.3062e-06|    0.083180|
|        4850|  4.4702e+01|  4.4702e+01|   -9.917229|  2.3042e-06|    0.083183|
|        4860|  4.4702e+01|  4.4702e+01|   -9.921030|  2.3021e-06|    0.083185|
|        4870|  4.4702e+01|  4.4702e+01|   -9.924824|  2.2999e-06|    0.083187|
|        4880|  4.4702e+01|  4.4702e+01|   -9.928608|  2.2975e-06|    0.083190|
|        4890|  4.4702e+01|  4.4702e+01|   -9.932382|  2.2951e-06|    0.083192|
|        4900|  4.4702e+01|  4.4702e+01|   -9.936147|  2.2926e-06|    0.083194|
|        4910|  4.4702e+01|  4.4702e+01|   -9.939904|  2.2901e-06|    0.083196|
|        4920|  4.4702e+01|  4.4702e+01|   -9.943651|  2.2875e-06|    0.083199|
|        4930|  4.4702e+01|  4.4702e+01|   -9.947386|  2.2849e-06|    0.083201|
|        4940|  4.4702e+01|  4.4702e+01|   -9.951104|  2.2822e-06|    0.083203|
|        4950|  4.4702e+01|  4.4702e+01|   -9.954801|  2.2794e-06|    0.083205|
|        4960|  4.4702e+01|  4.4702e+01|   -9.958471|  2.2765e-06|    0.083208|
|        4970|  4.4702e+01|  4.4702e+01|   -9.962114|  2.2735e-06|    0.083210|
|        4980|  4.4702e+01|  4.4702e+01|   -9.965728|  2.2703e-06|    0.083212|
|        4990|  4.4702e+01|  4.4702e+01|   -9.969315|  2.2671e-06|    0.083214|
|        5000|  4.4702e+01|  4.4702e+01|   -9.972879|  2.2637e-06|    0.083216|
+-----------------------------------------------------------------------+
|        File Writing Summary       |              Filename             |
+-----------------------------------------------------------------------+
|SU2 binary restart                 |restart_flow_G9.dat                |
|Paraview                           |flow_G9.vtu                        |
|Paraview surface                   |surface_flow_G9.vtu                |
+-----------------------------------------------------------------------+
+-----------------------------------------------------------------------------+
|  Inner_Iter|     Min CFL|     Max CFL|      rms[P]|  Cauchy[CD]|          CD|
+-----------------------------------------------------------------------------+
|        5010|  4.4702e+01|  4.4702e+01|   -9.976421|  2.2602e-06|    0.083219|
|        5020|  4.4702e+01|  4.4702e+01|   -9.979946|  2.2567e-06|    0.083221|
|        5030|  4.4702e+01|  4.4702e+01|   -9.983456|  2.2530e-06|    0.083223|
|        5040|  4.4702e+01|  4.4702e+01|   -9.986951|  2.2492e-06|    0.083225|
|        5050|  4.4702e+01|  4.4702e+01|   -9.990434|  2.2454e-06|    0.083227|
|        5060|  4.4702e+01|  4.4702e+01|   -9.993903|  2.2415e-06|    0.083230|
|        5070|  4.4702e+01|  4.4702e+01|   -9.997361|  2.2374e-06|    0.083232|
|        5080|  4.4702e+01|  4.4702e+01|  -10.000808|  2.2333e-06|    0.083234|
|        5090|  4.4702e+01|  4.4702e+01|  -10.004247|  2.2291e-06|    0.083236|
|        5100|  4.4702e+01|  4.4702e+01|  -10.007677|  2.2248e-06|    0.083238|
|        5110|  4.4702e+01|  4.4702e+01|  -10.011101|  2.2205e-06|    0.083241|
|        5120|  4.4702e+01|  4.4702e+01|  -10.014519|  2.2160e-06|    0.083243|
|        5130|  4.4702e+01|  4.4702e+01|  -10.017931|  2.2115e-06|    0.083245|
|        5140|  4.4702e+01|  4.4702e+01|  -10.021335|  2.2070e-06|    0.083247|
|        5150|  4.4702e+01|  4.4702e+01|  -10.024732|  2.2023e-06|    0.083249|
|        5160|  4.4702e+01|  4.4702e+01|  -10.028121|  2.1976e-06|    0.083251|
|        5170|  4.4702e+01|  4.4702e+01|  -10.031500|  2.1928e-06|    0.083253|
|        5180|  4.4702e+01|  4.4702e+01|  -10.034869|  2.1879e-06|    0.083256|
|        5190|  4.4702e+01|  4.4702e+01|  -10.038227|  2.1829e-06|    0.083258|
|        5200|  4.4702e+01|  4.4702e+01|  -10.041571|  2.1779e-06|    0.083260|
+-----------------------------------------------------------------------+
|        File Writing Summary       |              Filename             |
+-----------------------------------------------------------------------+
|SU2 binary restart                 |restart_flow_G9.dat                |
|Paraview                           |flow_G9.vtu                        |
|Paraview surface                   |surface_flow_G9.vtu                |
+-----------------------------------------------------------------------+
+-----------------------------------------------------------------------------+
|  Inner_Iter|     Min CFL|     Max CFL|      rms[P]|  Cauchy[CD]|          CD|
+-----------------------------------------------------------------------------+
|        5210|  4.4702e+01|  4.4702e+01|  -10.044901|  2.1727e-06|    0.083262|
|        5220|  4.4702e+01|  4.4702e+01|  -10.048214|  2.1675e-06|    0.083264|
|        5230|  4.4702e+01|  4.4702e+01|  -10.051509|  2.1622e-06|    0.083266|
|        5240|  4.4702e+01|  4.4702e+01|  -10.054785|  2.1568e-06|    0.083268|
|        5250|  4.4702e+01|  4.4702e+01|  -10.058043|  2.1515e-06|    0.083270|
|        5260|  4.4702e+01|  4.4702e+01|  -10.061282|  2.1461e-06|    0.083272|
|        5270|  4.4702e+01|  4.4702e+01|  -10.064504|  2.1406e-06|    0.083274|
|        5280|  4.4702e+01|  4.4702e+01|  -10.067709|  2.1351e-06|    0.083276|
|        5290|  4.4702e+01|  4.4702e+01|  -10.070897|  2.1296e-06|    0.083279|
|        5300|  4.4702e+01|  4.4702e+01|  -10.074070|  2.1240e-06|    0.083281|
|        5310|  4.4702e+01|  4.4702e+01|  -10.077226|  2.1183e-06|    0.083283|
|        5320|  4.4702e+01|  4.4702e+01|  -10.080366|  2.1126e-06|    0.083285|
|        5330|  4.4702e+01|  4.4702e+01|  -10.083487|  2.1068e-06|    0.083287|
|        5340|  4.4702e+01|  4.4702e+01|  -10.086591|  2.1010e-06|    0.083289|
|        5350|  4.4702e+01|  4.4702e+01|  -10.089678|  2.0951e-06|    0.083291|
|        5360|  4.4702e+01|  4.4702e+01|  -10.092749|  2.0892e-06|    0.083293|
|        5370|  4.4702e+01|  4.4702e+01|  -10.095807|  2.0832e-06|    0.083295|
|        5380|  4.4702e+01|  4.4702e+01|  -10.098853|  2.0772e-06|    0.083297|
|        5390|  4.4702e+01|  4.4702e+01|  -10.101891|  2.0712e-06|    0.083299|
|        5400|  4.4702e+01|  4.4702e+01|  -10.104922|  2.0651e-06|    0.083301|
+-----------------------------------------------------------------------+
|        File Writing Summary       |              Filename             |
+-----------------------------------------------------------------------+
|SU2 binary restart                 |restart_flow_G9.dat                |
|Paraview                           |flow_G9.vtu                        |
|Paraview surface                   |surface_flow_G9.vtu                |
+-----------------------------------------------------------------------+
+-----------------------------------------------------------------------------+
|  Inner_Iter|     Min CFL|     Max CFL|      rms[P]|  Cauchy[CD]|          CD|
+-----------------------------------------------------------------------------+
|        5410|  4.4702e+01|  4.4702e+01|  -10.107950|  2.0591e-06|    0.083303|
|        5420|  4.4702e+01|  4.4702e+01|  -10.110973|  2.0530e-06|    0.083305|
|        5430|  4.4702e+01|  4.4702e+01|  -10.113994|  2.0469e-06|    0.083307|
|        5440|  4.4702e+01|  4.4702e+01|  -10.117013|  2.0407e-06|    0.083309|
|        5450|  4.4702e+01|  4.4702e+01|  -10.120029|  2.0346e-06|    0.083311|
|        5460|  4.4702e+01|  4.4702e+01|  -10.123043|  2.0284e-06|    0.083313|
|        5470|  4.4702e+01|  4.4702e+01|  -10.126055|  2.0222e-06|    0.083315|
|        5480|  4.4702e+01|  4.4702e+01|  -10.129066|  2.0160e-06|    0.083316|
|        5490|  4.4702e+01|  4.4702e+01|  -10.132076|  2.0098e-06|    0.083318|
|        5500|  4.4702e+01|  4.4702e+01|  -10.135085|  2.0036e-06|    0.083320|
|        5510|  4.4702e+01|  4.4702e+01|  -10.138093|  1.9973e-06|    0.083322|
|        5520|  4.4702e+01|  4.4702e+01|  -10.141100|  1.9910e-06|    0.083324|
|        5530|  4.4702e+01|  4.4702e+01|  -10.144106|  1.9846e-06|    0.083326|
|        5540|  4.4702e+01|  4.4702e+01|  -10.147109|  1.9783e-06|    0.083328|
|        5550|  4.4702e+01|  4.4702e+01|  -10.150109|  1.9719e-06|    0.083330|
|        5560|  4.4702e+01|  4.4702e+01|  -10.153103|  1.9655e-06|    0.083332|
|        5570|  4.4702e+01|  4.4702e+01|  -10.156091|  1.9590e-06|    0.083334|
|        5580|  4.4702e+01|  4.4702e+01|  -10.159069|  1.9525e-06|    0.083336|
|        5590|  4.4702e+01|  4.4702e+01|  -10.162038|  1.9461e-06|    0.083337|
|        5600|  4.4702e+01|  4.4702e+01|  -10.164996|  1.9396e-06|    0.083339|
+-----------------------------------------------------------------------+
|        File Writing Summary       |              Filename             |
+-----------------------------------------------------------------------+
|SU2 binary restart                 |restart_flow_G9.dat                |
|Paraview                           |flow_G9.vtu                        |
|Paraview surface                   |surface_flow_G9.vtu                |
+-----------------------------------------------------------------------+
+-----------------------------------------------------------------------------+
|  Inner_Iter|     Min CFL|     Max CFL|      rms[P]|  Cauchy[CD]|          CD|
+-----------------------------------------------------------------------------+
|        5610|  4.4702e+01|  4.4702e+01|  -10.167942|  1.9330e-06|    0.083341|
|        5620|  4.4702e+01|  4.4702e+01|  -10.170874|  1.9265e-06|    0.083343|
|        5630|  4.4702e+01|  4.4702e+01|  -10.173793|  1.9199e-06|    0.083345|
|        5640|  4.4702e+01|  4.4702e+01|  -10.176697|  1.9134e-06|    0.083347|
|        5650|  4.4702e+01|  4.4702e+01|  -10.179586|  1.9068e-06|    0.083348|
|        5660|  4.4702e+01|  4.4702e+01|  -10.182460|  1.9002e-06|    0.083350|
|        5670|  4.4702e+01|  4.4702e+01|  -10.185319|  1.8936e-06|    0.083352|
|        5680|  4.4702e+01|  4.4702e+01|  -10.188163|  1.8869e-06|    0.083354|
|        5690|  4.4702e+01|  4.4702e+01|  -10.190992|  1.8803e-06|    0.083356|
|        5700|  4.4702e+01|  4.4702e+01|  -10.193806|  1.8736e-06|    0.083357|
|        5710|  4.4702e+01|  4.4702e+01|  -10.196605|  1.8669e-06|    0.083359|
|        5720|  4.4702e+01|  4.4702e+01|  -10.199389|  1.8602e-06|    0.083361|
|        5730|  4.4702e+01|  4.4702e+01|  -10.202158|  1.8535e-06|    0.083363|
|        5740|  4.4702e+01|  4.4702e+01|  -10.204912|  1.8468e-06|    0.083365|
|        5750|  4.4702e+01|  4.4702e+01|  -10.207651|  1.8400e-06|    0.083366|
|        5760|  4.4702e+01|  4.4702e+01|  -10.210377|  1.8333e-06|    0.083368|
|        5770|  4.4702e+01|  4.4702e+01|  -10.213088|  1.8265e-06|    0.083370|
|        5780|  4.4702e+01|  4.4702e+01|  -10.215788|  1.8198e-06|    0.083372|
|        5790|  4.4702e+01|  4.4702e+01|  -10.218476|  1.8130e-06|    0.083373|
|        5800|  4.4702e+01|  4.4702e+01|  -10.221154|  1.8063e-06|    0.083375|
+-----------------------------------------------------------------------+
|        File Writing Summary       |              Filename             |
+-----------------------------------------------------------------------+
|SU2 binary restart                 |restart_flow_G9.dat                |
|Paraview                           |flow_G9.vtu                        |
|Paraview surface                   |surface_flow_G9.vtu                |
+-----------------------------------------------------------------------+
+-----------------------------------------------------------------------------+
|  Inner_Iter|     Min CFL|     Max CFL|      rms[P]|  Cauchy[CD]|          CD|
+-----------------------------------------------------------------------------+
|        5810|  4.4702e+01|  4.4702e+01|  -10.223823|  1.7996e-06|    0.083377|
|        5820|  4.4702e+01|  4.4702e+01|  -10.226484|  1.7928e-06|    0.083378|
|        5830|  4.4702e+01|  4.4702e+01|  -10.229138|  1.7861e-06|    0.083380|
|        5840|  4.4702e+01|  4.4702e+01|  -10.231784|  1.7794e-06|    0.083382|
|        5850|  4.4702e+01|  4.4702e+01|  -10.234422|  1.7727e-06|    0.083384|
|        5860|  4.4702e+01|  4.4702e+01|  -10.237051|  1.7660e-06|    0.083385|
|        5870|  4.4702e+01|  4.4702e+01|  -10.239672|  1.7593e-06|    0.083387|
|        5880|  4.4702e+01|  4.4702e+01|  -10.242284|  1.7526e-06|    0.083389|
|        5890|  4.4702e+01|  4.4702e+01|  -10.244886|  1.7459e-06|    0.083390|
|        5900|  4.4702e+01|  4.4702e+01|  -10.247478|  1.7392e-06|    0.083392|
|        5910|  4.4702e+01|  4.4702e+01|  -10.250061|  1.7325e-06|    0.083394|
|        5920|  4.4702e+01|  4.4702e+01|  -10.252633|  1.7258e-06|    0.083395|
|        5930|  4.4702e+01|  4.4702e+01|  -10.255196|  1.7191e-06|    0.083397|
|        5940|  4.4702e+01|  4.4702e+01|  -10.257748|  1.7124e-06|    0.083399|
|        5950|  4.4702e+01|  4.4702e+01|  -10.260290|  1.7057e-06|    0.083400|
|        5960|  4.4702e+01|  4.4702e+01|  -10.262822|  1.6990e-06|    0.083402|
|        5970|  4.4702e+01|  4.4702e+01|  -10.265344|  1.6924e-06|    0.083403|
|        5980|  4.4702e+01|  4.4702e+01|  -10.267854|  1.6858e-06|    0.083405|
|        5990|  4.4702e+01|  4.4702e+01|  -10.270354|  1.6791e-06|    0.083407|
|        6000|  4.4702e+01|  4.4702e+01|  -10.272842|  1.6725e-06|    0.083408|
+-----------------------------------------------------------------------+
|        File Writing Summary       |              Filename             |
+-----------------------------------------------------------------------+
|SU2 binary restart                 |restart_flow_G9.dat                |
|Paraview                           |flow_G9.vtu                        |
|Paraview surface                   |surface_flow_G9.vtu                |
+-----------------------------------------------------------------------+
+-----------------------------------------------------------------------------+
|  Inner_Iter|     Min CFL|     Max CFL|      rms[P]|  Cauchy[CD]|          CD|
+-----------------------------------------------------------------------------+
|        6010|  4.4702e+01|  4.4702e+01|  -10.275319|  1.6659e-06|    0.083410|
|        6020|  4.4702e+01|  4.4702e+01|  -10.277786|  1.6594e-06|    0.083411|
|        6030|  4.4702e+01|  4.4702e+01|  -10.280242|  1.6528e-06|    0.083413|
|        6040|  4.4702e+01|  4.4702e+01|  -10.282687|  1.6462e-06|    0.083414|
|        6050|  4.4702e+01|  4.4702e+01|  -10.285121|  1.6397e-06|    0.083416|
|        6060|  4.4702e+01|  4.4702e+01|  -10.287545|  1.6332e-06|    0.083418|
|        6070|  4.4702e+01|  4.4702e+01|  -10.289959|  1.6266e-06|    0.083419|
|        6080|  4.4702e+01|  4.4702e+01|  -10.292362|  1.6201e-06|    0.083421|
|        6090|  4.4702e+01|  4.4702e+01|  -10.294756|  1.6136e-06|    0.083422|
|        6100|  4.4702e+01|  4.4702e+01|  -10.297141|  1.6072e-06|    0.083424|
|        6110|  4.4702e+01|  4.4702e+01|  -10.299518|  1.6007e-06|    0.083425|
|        6120|  4.4702e+01|  4.4702e+01|  -10.301887|  1.5943e-06|    0.083427|
|        6130|  4.4702e+01|  4.4702e+01|  -10.304248|  1.5878e-06|    0.083428|
|        6140|  4.4702e+01|  4.4702e+01|  -10.306603|  1.5814e-06|    0.083430|
|        6150|  4.4702e+01|  4.4702e+01|  -10.308952|  1.5750e-06|    0.083431|
|        6160|  4.4702e+01|  4.4702e+01|  -10.311294|  1.5687e-06|    0.083433|
|        6170|  4.4702e+01|  4.4702e+01|  -10.313631|  1.5623e-06|    0.083434|
|        6180|  4.4702e+01|  4.4702e+01|  -10.315962|  1.5560e-06|    0.083436|
|        6190|  4.4702e+01|  4.4702e+01|  -10.318287|  1.5496e-06|    0.083437|
|        6200|  4.4702e+01|  4.4702e+01|  -10.320606|  1.5433e-06|    0.083439|
+-----------------------------------------------------------------------+
|        File Writing Summary       |              Filename             |
+-----------------------------------------------------------------------+
|SU2 binary restart                 |restart_flow_G9.dat                |
|Paraview                           |flow_G9.vtu                        |
|Paraview surface                   |surface_flow_G9.vtu                |
+-----------------------------------------------------------------------+
+-----------------------------------------------------------------------------+
|  Inner_Iter|     Min CFL|     Max CFL|      rms[P]|  Cauchy[CD]|          CD|
+-----------------------------------------------------------------------------+
|        6210|  4.4702e+01|  4.4702e+01|  -10.322919|  1.5370e-06|    0.083440|
|        6220|  4.4702e+01|  4.4702e+01|  -10.325226|  1.5307e-06|    0.083442|
|        6230|  4.4702e+01|  4.4702e+01|  -10.327527|  1.5245e-06|    0.083443|
|        6240|  4.4702e+01|  4.4702e+01|  -10.329821|  1.5182e-06|    0.083445|
|        6250|  4.4702e+01|  4.4702e+01|  -10.332108|  1.5120e-06|    0.083446|
|        6260|  4.4702e+01|  4.4702e+01|  -10.334389|  1.5058e-06|    0.083447|
|        6270|  4.4702e+01|  4.4702e+01|  -10.336664|  1.4996e-06|    0.083449|
|        6280|  4.4702e+01|  4.4702e+01|  -10.338933|  1.4934e-06|    0.083450|
|        6290|  4.4702e+01|  4.4702e+01|  -10.341195|  1.4872e-06|    0.083452|
|        6300|  4.4702e+01|  4.4702e+01|  -10.343451|  1.4811e-06|    0.083453|
|        6310|  4.4702e+01|  4.4702e+01|  -10.345700|  1.4749e-06|    0.083454|
|        6320|  4.4702e+01|  4.4702e+01|  -10.347942|  1.4688e-06|    0.083456|
|        6330|  4.4702e+01|  4.4702e+01|  -10.350177|  1.4627e-06|    0.083457|
|        6340|  4.4702e+01|  4.4702e+01|  -10.352405|  1.4567e-06|    0.083459|
|        6350|  4.4702e+01|  4.4702e+01|  -10.354625|  1.4506e-06|    0.083460|
|        6360|  4.4702e+01|  4.4702e+01|  -10.356837|  1.4446e-06|    0.083461|
|        6370|  4.4702e+01|  4.4702e+01|  -10.359040|  1.4386e-06|    0.083463|
|        6380|  4.4702e+01|  4.4702e+01|  -10.361235|  1.4326e-06|    0.083464|
|        6390|  4.4702e+01|  4.4702e+01|  -10.363420|  1.4266e-06|    0.083465|
|        6400|  4.4702e+01|  4.4702e+01|  -10.365597|  1.4206e-06|    0.083467|
+-----------------------------------------------------------------------+
|        File Writing Summary       |              Filename             |
+-----------------------------------------------------------------------+
|SU2 binary restart                 |restart_flow_G9.dat                |
|Paraview                           |flow_G9.vtu                        |
|Paraview surface                   |surface_flow_G9.vtu                |
+-----------------------------------------------------------------------+
+-----------------------------------------------------------------------------+
|  Inner_Iter|     Min CFL|     Max CFL|      rms[P]|  Cauchy[CD]|          CD|
+-----------------------------------------------------------------------------+
|        6410|  4.4702e+01|  4.4702e+01|  -10.367766|  1.4147e-06|    0.083468|
|        6420|  4.4702e+01|  4.4702e+01|  -10.369926|  1.4088e-06|    0.083470|
|        6430|  4.4702e+01|  4.4702e+01|  -10.372077|  1.4029e-06|    0.083471|
|        6440|  4.4702e+01|  4.4702e+01|  -10.374220|  1.3970e-06|    0.083472|
|        6450|  4.4702e+01|  4.4702e+01|  -10.376357|  1.3912e-06|    0.083474|
|        6460|  4.4702e+01|  4.4702e+01|  -10.378487|  1.3853e-06|    0.083475|
|        6470|  4.4702e+01|  4.4702e+01|  -10.380611|  1.3795e-06|    0.083476|
|        6480|  4.4702e+01|  4.4702e+01|  -10.382730|  1.3737e-06|    0.083477|
|        6490|  4.4702e+01|  4.4702e+01|  -10.384843|  1.3680e-06|    0.083479|
|        6500|  4.4702e+01|  4.4702e+01|  -10.386950|  1.3622e-06|    0.083480|
|        6510|  4.4702e+01|  4.4702e+01|  -10.389051|  1.3565e-06|    0.083481|
|        6520|  4.4702e+01|  4.4702e+01|  -10.391146|  1.3508e-06|    0.083483|
|        6530|  4.4702e+01|  4.4702e+01|  -10.393236|  1.3452e-06|    0.083484|
|        6540|  4.4702e+01|  4.4702e+01|  -10.395320|  1.3395e-06|    0.083485|
|        6550|  4.4702e+01|  4.4702e+01|  -10.397399|  1.3339e-06|    0.083486|
|        6560|  4.4702e+01|  4.4702e+01|  -10.399473|  1.3283e-06|    0.083488|
|        6570|  4.4702e+01|  4.4702e+01|  -10.401541|  1.3227e-06|    0.083489|
|        6580|  4.4702e+01|  4.4702e+01|  -10.403605|  1.3171e-06|    0.083490|
|        6590|  4.4702e+01|  4.4702e+01|  -10.405663|  1.3116e-06|    0.083491|
|        6600|  4.4702e+01|  4.4702e+01|  -10.407717|  1.3060e-06|    0.083493|
+-----------------------------------------------------------------------+
|        File Writing Summary       |              Filename             |
+-----------------------------------------------------------------------+
|SU2 binary restart                 |restart_flow_G9.dat                |
|Paraview                           |flow_G9.vtu                        |
|Paraview surface                   |surface_flow_G9.vtu                |
+-----------------------------------------------------------------------+
+-----------------------------------------------------------------------------+
|  Inner_Iter|     Min CFL|     Max CFL|      rms[P]|  Cauchy[CD]|          CD|
+-----------------------------------------------------------------------------+
|        6610|  4.4702e+01|  4.4702e+01|  -10.409766|  1.3005e-06|    0.083494|
|        6620|  4.4702e+01|  4.4702e+01|  -10.411810|  1.2951e-06|    0.083495|
|        6630|  4.4702e+01|  4.4702e+01|  -10.413850|  1.2896e-06|    0.083496|
|        6640|  4.4702e+01|  4.4702e+01|  -10.415885|  1.2842e-06|    0.083498|
|        6650|  4.4702e+01|  4.4702e+01|  -10.417917|  1.2787e-06|    0.083499|
|        6660|  4.4702e+01|  4.4702e+01|  -10.419943|  1.2734e-06|    0.083500|
|        6670|  4.4702e+01|  4.4702e+01|  -10.421966|  1.2680e-06|    0.083501|
|        6680|  4.4702e+01|  4.4702e+01|  -10.423983|  1.2626e-06|    0.083502|
|        6690|  4.4702e+01|  4.4702e+01|  -10.425995|  1.2573e-06|    0.083504|
|        6700|  4.4702e+01|  4.4702e+01|  -10.428002|  1.2520e-06|    0.083505|
|        6710|  4.4702e+01|  4.4702e+01|  -10.430004|  1.2467e-06|    0.083506|
|        6720|  4.4702e+01|  4.4702e+01|  -10.432000|  1.2414e-06|    0.083507|
|        6730|  4.4702e+01|  4.4702e+01|  -10.433991|  1.2362e-06|    0.083508|
|        6740|  4.4702e+01|  4.4702e+01|  -10.435978|  1.2309e-06|    0.083510|
|        6750|  4.4702e+01|  4.4702e+01|  -10.437959|  1.2257e-06|    0.083511|
|        6760|  4.4702e+01|  4.4702e+01|  -10.439937|  1.2206e-06|    0.083512|
|        6770|  4.4702e+01|  4.4702e+01|  -10.441910|  1.2154e-06|    0.083513|
|        6780|  4.4702e+01|  4.4702e+01|  -10.443878|  1.2102e-06|    0.083514|
|        6790|  4.4702e+01|  4.4702e+01|  -10.445842|  1.2051e-06|    0.083515|
|        6800|  4.4702e+01|  4.4702e+01|  -10.447801|  1.2000e-06|    0.083516|
+-----------------------------------------------------------------------+
|        File Writing Summary       |              Filename             |
+-----------------------------------------------------------------------+
|SU2 binary restart                 |restart_flow_G9.dat                |
|Paraview                           |flow_G9.vtu                        |
|Paraview surface                   |surface_flow_G9.vtu                |
+-----------------------------------------------------------------------+
+-----------------------------------------------------------------------------+
|  Inner_Iter|     Min CFL|     Max CFL|      rms[P]|  Cauchy[CD]|          CD|
+-----------------------------------------------------------------------------+
|        6810|  4.4702e+01|  4.4702e+01|  -10.449756|  1.1949e-06|    0.083518|
|        6820|  4.4702e+01|  4.4702e+01|  -10.451706|  1.1899e-06|    0.083519|
|        6830|  4.4702e+01|  4.4702e+01|  -10.453652|  1.1849e-06|    0.083520|
|        6840|  4.4702e+01|  4.4702e+01|  -10.455593|  1.1798e-06|    0.083521|
|        6850|  4.4702e+01|  4.4702e+01|  -10.457531|  1.1748e-06|    0.083522|
|        6860|  4.4702e+01|  4.4702e+01|  -10.459464|  1.1699e-06|    0.083523|
|        6870|  4.4702e+01|  4.4702e+01|  -10.461394|  1.1649e-06|    0.083524|
|        6880|  4.4702e+01|  4.4702e+01|  -10.463321|  1.1600e-06|    0.083525|
|        6890|  4.4702e+01|  4.4702e+01|  -10.465244|  1.1551e-06|    0.083526|
|        6900|  4.4702e+01|  4.4702e+01|  -10.467164|  1.1502e-06|    0.083528|
|        6910|  4.4702e+01|  4.4702e+01|  -10.469082|  1.1453e-06|    0.083529|
|        6920|  4.4702e+01|  4.4702e+01|  -10.470996|  1.1405e-06|    0.083530|
|        6930|  4.4702e+01|  4.4702e+01|  -10.472907|  1.1356e-06|    0.083531|
|        6940|  4.4702e+01|  4.4702e+01|  -10.474815|  1.1308e-06|    0.083532|
|        6950|  4.4702e+01|  4.4702e+01|  -10.476719|  1.1260e-06|    0.083533|
|        6960|  4.4702e+01|  4.4702e+01|  -10.478621|  1.1213e-06|    0.083534|
|        6970|  4.4702e+01|  4.4702e+01|  -10.480519|  1.1165e-06|    0.083535|
|        6980|  4.4702e+01|  4.4702e+01|  -10.482414|  1.1118e-06|    0.083536|
|        6990|  4.4702e+01|  4.4702e+01|  -10.484307|  1.1071e-06|    0.083537|
|        7000|  4.4702e+01|  4.4702e+01|  -10.486196|  1.1024e-06|    0.083538|
+-----------------------------------------------------------------------+
|        File Writing Summary       |              Filename             |
+-----------------------------------------------------------------------+
|SU2 binary restart                 |restart_flow_G9.dat                |
|Paraview                           |flow_G9.vtu                        |
|Paraview surface                   |surface_flow_G9.vtu                |
+-----------------------------------------------------------------------+
+-----------------------------------------------------------------------------+
|  Inner_Iter|     Min CFL|     Max CFL|      rms[P]|  Cauchy[CD]|          CD|
+-----------------------------------------------------------------------------+
|        7010|  4.4702e+01|  4.4702e+01|  -10.488082|  1.0977e-06|    0.083539|
|        7020|  4.4702e+01|  4.4702e+01|  -10.489965|  1.0931e-06|    0.083540|
|        7030|  4.4702e+01|  4.4702e+01|  -10.491845|  1.0884e-06|    0.083541|
|        7040|  4.4702e+01|  4.4702e+01|  -10.493721|  1.0838e-06|    0.083542|
|        7050|  4.4702e+01|  4.4702e+01|  -10.495594|  1.0792e-06|    0.083543|
|        7060|  4.4702e+01|  4.4702e+01|  -10.497464|  1.0747e-06|    0.083544|
|        7070|  4.4702e+01|  4.4702e+01|  -10.499330|  1.0701e-06|    0.083545|
|        7080|  4.4702e+01|  4.4702e+01|  -10.501192|  1.0656e-06|    0.083546|
|        7090|  4.4702e+01|  4.4702e+01|  -10.503052|  1.0611e-06|    0.083547|
|        7100|  4.4702e+01|  4.4702e+01|  -10.504908|  1.0566e-06|    0.083548|
|        7110|  4.4702e+01|  4.4702e+01|  -10.506761|  1.0521e-06|    0.083549|
|        7120|  4.4702e+01|  4.4702e+01|  -10.508612|  1.0477e-06|    0.083550|
|        7130|  4.4702e+01|  4.4702e+01|  -10.510459|  1.0432e-06|    0.083551|
|        7140|  4.4702e+01|  4.4702e+01|  -10.512304|  1.0388e-06|    0.083552|
|        7150|  4.4702e+01|  4.4702e+01|  -10.514146|  1.0344e-06|    0.083553|
|        7160|  4.4702e+01|  4.4702e+01|  -10.515986|  1.0300e-06|    0.083554|
|        7170|  4.4702e+01|  4.4702e+01|  -10.517823|  1.0257e-06|    0.083555|
|        7180|  4.4702e+01|  4.4702e+01|  -10.519657|  1.0214e-06|    0.083556|
|        7190|  4.4702e+01|  4.4702e+01|  -10.521489|  1.0170e-06|    0.083557|
|        7200|  4.4702e+01|  4.4702e+01|  -10.523317|  1.0127e-06|    0.083558|
+-----------------------------------------------------------------------+
|        File Writing Summary       |              Filename             |
+-----------------------------------------------------------------------+
|SU2 binary restart                 |restart_flow_G9.dat                |
|Paraview                           |flow_G9.vtu                        |
|Paraview surface                   |surface_flow_G9.vtu                |
+-----------------------------------------------------------------------+
+-----------------------------------------------------------------------------+
|  Inner_Iter|     Min CFL|     Max CFL|      rms[P]|  Cauchy[CD]|          CD|
+-----------------------------------------------------------------------------+
|        7210|  4.4702e+01|  4.4702e+01|  -10.525143|  1.0085e-06|    0.083559|
|        7220|  4.4702e+01|  4.4702e+01|  -10.526966|  1.0042e-06|    0.083560|
|        7230|  4.4702e+01|  4.4702e+01|  -10.528786|  9.9996e-07|    0.083561|

----------------------------- Solver Exit -------------------------------
All convergence criteria satisfied.
+-----------------------------------------------------------------------+
|      Convergence Field     |     Value    |   Criterion  |  Converged |
+-----------------------------------------------------------------------+
|                      rms[P]|      -10.5288|          < -9|         Yes|
|                  Cauchy[CD]|   9.99956e-07|       < 1e-06|         Yes|
+-----------------------------------------------------------------------+
-------------------------------------------------------------------------
+-----------------------------------------------------------------------+
|        File Writing Summary       |              Filename             |
+-----------------------------------------------------------------------+
|SU2 binary restart                 |restart_flow_G9.dat                |
|Paraview                           |flow_G9.vtu                        |
|Paraview surface                   |surface_flow_G9.vtu                |
+-----------------------------------------------------------------------+

------------------------- Solver Postprocessing -------------------------
Deleted CNumerics container.
Deleted CIntegration container.
Deleted CSolver container.
Deleted CIteration container.
Deleted CInterface container.
Deleted CGeometry container.
Deleted CFreeFormDefBox class.
Deleted CSurfaceMovement class.
Deleted CVolumetricMovement class.
Deleted CConfig container.
Deleted nInst container.
Deleted COutput class.
-------------------------------------------------------------------------

------------------------- Exit Success (SU2_CFD) ------------------------

