
-------------------------------------------------------------------------
|    ___ _   _ ___                                                      |
|   / __| | | |_  )   Release 7.4.0 "Blackbird"                         |
|   \__ \ |_| |/ /                                                      |
|   |___/\___//___|   Suite (Computational Fluid Dynamics Code)         |
|                                                                       |
-------------------------------------------------------------------------
| SU2 Project Website: https://su2code.github.io                        |
|                                                                       |
| The SU2 Project is maintained by the SU2 Foundation                   |
| (http://su2foundation.org)                                            |
-------------------------------------------------------------------------
| Copyright 2012-2022, SU2 Contributors                                 |
|                                                                       |
| SU2 is free software; you can redistribute it and/or                  |
| modify it under the terms of the GNU Lesser General Public            |
| License as published by the Free Software Foundation; either          |
| version 2.1 of the License, or (at your option) any later version.    |
|                                                                       |
| SU2 is distributed in the hope that it will be useful,                |
| but WITHOUT ANY WARRANTY; without even the implied warranty of        |
| MERCHANTABILITY or FITNESS FOR A PARTICULAR PURPOSE. See the GNU      |
| Lesser General Public License for more details.                       |
|                                                                       |
| You should have received a copy of the GNU Lesser General Public      |
| License along with SU2. If not, see <http://www.gnu.org/licenses/>.   |
-------------------------------------------------------------------------

Parsing config file for zone 0

----------------- Physical Case Definition ( Zone 0 ) -------------------
Incompressible RANS equations.
Turbulence model: Spalart-Allmaras-noft2
Hybrid RANS/LES: No Hybrid RANS/LES
Reading and writing binary SU2 native restart files.
Read flow solution from: ../../../O1/caseG3/cfdG3/restart_flow_G3.dat.
Non-Dimensional simulation using intialization values.
The reference area is 1 m^2.
The semi-span will be computed using the max y(3D) value.
The reference length is 1.00898 m.
Reference origin for moment evaluation is (-0.756, 0, 0).
Surface(s) where the force coefficients are evaluated: AIRFOIL.

Surface(s) plotted in the output file: AIRFOIL.
Input mesh file name: ../meshG3/meshG3.su2

--------------- Space Numerical Integration ( Zone 0 ) ------------------
Flux difference splitting (FDS) upwind scheme for the flow inviscid terms.
Second order integration in space, with slope limiter.
Venkatakrishnan slope-limiting method, with constant: 0.1.
The reference element size is: 1. 
Average of gradients with correction (viscous flow terms).
Average of gradients with correction (viscous turbulence terms).
Gradient for upwind reconstruction: unweighted Least-Squares.
Gradient for viscous and source terms: Green-Gauss.

--------------- Time Numerical Integration  ( Zone 0 ) ------------------
Local time stepping (steady state simulation).
Euler implicit method for the flow equations.
FGMRES is used for solving the linear system.
Using a ILU(0) preconditioning.
Convergence criteria of the linear solver: 1e-06.
Max number of linear iterations: 10.
CFL adaptation. Factor down: 0.1, factor up: 1.2,
                lower limit: 1, upper limit: 1000,
                acceptable linear residual: 0.001.
Courant-Friedrichs-Lewy number:        2
Euler implicit time integration for the turbulence model.

------------------ Convergence Criteria  ( Zone 0 ) ---------------------
Maximum number of solver subiterations: 20000.
Begin convergence monitoring at iteration 10.
Residual minimum value: 1e-9.
Cauchy series min. value: 1e-06.
Number of Cauchy elements: 250.
Begin windowed time average at iteration 0.

-------------------- Output Information ( Zone 0 ) ----------------------
File writing frequency: 
+------------------------------------+
|                     File| Frequency|
+------------------------------------+
|                  RESTART|       200|
|                 PARAVIEW|       200|
|         SURFACE_PARAVIEW|       200|
+------------------------------------+
Writing the convergence history file every 1 inner iterations.
Writing the screen convergence history every 10 inner iterations.
The tabular file format is CSV (.csv).
Convergence history file name: history_G3.
Forces breakdown file name: forces_breakdown.dat.
Surface file name: surface_flow_G3.
Volume file name: flow_G3.
Restart file name: restart_flow_G3.dat.

------------- Config File Boundary Information ( Zone 0 ) ---------------
+-----------------------------------------------------------------------+
|                        Marker Type|                        Marker Name|
+-----------------------------------------------------------------------+
|                          Far-field|                           FARFIELD|
+-----------------------------------------------------------------------+
|                     Heat flux wall|                            AIRFOIL|
+-----------------------------------------------------------------------+

-------------------- Output Preprocessing ( Zone 0 ) --------------------

WARNING: SURFACE_PRESSURE_DROP can only be computed for at least 2 surfaces (outlet, inlet, ...)

Screen output fields: INNER_ITER, MIN_CFL, MAX_CFL, RMS_PRESSURE, CAUCHY_DRAG, DRAG
History output group(s): INNER_ITER, MIN_CFL, MAX_CFL, RMS_RES, LIFT, DRAG, MOMENT_Z, CAUCHY
Convergence field(s): RMS_PRESSURE, DRAG
Warning: No (valid) fields chosen for time convergence monitoring. Time convergence monitoring inactive.
Volume output fields: COORDINATES, SOLUTION, PRIMITIVE, RESIDUAL, MESH_QUALITY

------------------- Geometry Preprocessing ( Zone 0 ) -------------------
Two dimensional problem.
87080 grid points before partitioning.
86394 volume elements before partitioning.
2 surface markers.
408 boundary elements in index 0 (Marker = AIRFOIL).
964 boundary elements in index 1 (Marker = FARFIELD).
Executing the partitioning functions.
Building the graph adjacency structure.
Calling ParMETIS... graph partitioning complete (1897 edge cuts).
Distributing ParMETIS coloring.
Rebalancing vertices.
Rebalancing volume element connectivity.
Rebalancing markers and surface elements.
90890 vertices including ghost points. 
88287 interior elements including halo cells. 
88287 quadrilaterals.
Establishing MPI communication patterns.
Setting point connectivity.
Renumbering points (Reverse Cuthill McKee Ordering).
Recomputing point connectivity.
Setting element connectivity.
Checking the numerical grid orientation.
All volume elements are correctly orientend.
There has been a re-orientation of 695 LINE surface elements.
Identifying edges and vertices.
Setting the control volume structure.
Area of the computational grid: 3258.17.
Searching for the closest normal neighbors to the surfaces.
Storing a mapping from global to local point index.
Compute the surface curvature.
Max K: 3477.87. Mean K: 3.76135. Standard deviation K: 94.1413.
Checking for periodicity.
Computing mesh quality statistics for the dual control volumes.
+--------------------------------------------------------------+
|           Mesh Quality Metric|        Minimum|        Maximum|
+--------------------------------------------------------------+
|    Orthogonality Angle (deg.)|        75.1039|             90|
|     CV Face Area Aspect Ratio|        1.00025|         130200|
|           CV Sub-Volume Ratio|              1|        9.58155|
+--------------------------------------------------------------+
Finding max control volume width.
Communicating number of neighbors.
Wetted area = 2.05945 m.
Area projection in the x-plane = 0.121108 m, y-plane = 1.00869 m.
Max. coordinate in the x-direction = 1.00898 m, y-direction = 0.0759835 m.
Min. coordinate in the x-direction = 1.51643e-05 m, y-direction = -0.0451337 m.
Computing wall distances.

-------------------- Solver Preprocessing ( Zone 0 ) --------------------
 Warning: There is no restart file (flow.meta).
 Computation will continue without updating metadata parameters.
Incompressible flow: rho_ref, vel_ref, and temp_ref
are based on the initial values, p_ref = rho_ref*vel_ref^2.
Force coefficients computed using initial values.
The reference area for force coeffs. is 1 m^2.
The reference length for force coeffs. is 1.00898 m.
The pressure is decomposed into thermodynamic and dynamic components.
The initial value of the dynamic pressure is 0.
Mach number: 0.0276747, computed using the Bulk modulus.
For external flows, the initial state is imposed at the far-field.
Angle of attack (deg): 14, computed using the initial velocity.
Side slip angle (deg): 0, computed using the initial velocity.
Reynolds number per meter: 594999, computed using initial values.
Reynolds number is a byproduct of inputs only (not used internally).
SI units only. The grid should be dimensional (meters).
No energy equation.

-- Models:
+------------------------------------------------------------------------------+
|          Viscosity Model|        Conductivity Model|              Fluid Model|
+------------------------------------------------------------------------------+
|       CONSTANT_VISCOSITY|          CONSTANT_PRANDTL|         CONSTANT_DENSITY|
+------------------------------------------------------------------------------+
-- Fluid properties:
+------------------------------------------------------------------------------+
|                  Name|    Dim. value|    Ref. value|      Unit|Non-dim. value|
+------------------------------------------------------------------------------+
|             Viscosity|      1.92e-05|        11.424|   N.s/m^2|   1.68067e-06|
+------------------------------------------------------------------------------+
|        Prandtl (Lam.)|             -|             -|         -|          0.72|
|       Prandtl (Turb.)|             -|             -|         -|           0.9|
+------------------------------------------------------------------------------+
|          Bulk Modulus|        142000|             1|        Pa|        142000|
+------------------------------------------------------------------------------+
-- Initial and free-stream conditions:
+------------------------------------------------------------------------------+
|                  Name|    Dim. value|    Ref. value|      Unit|Non-dim. value|
+------------------------------------------------------------------------------+
|      Dynamic Pressure|             0|       108.756|        Pa|             0|
|        Total Pressure|       54.3781|       108.756|        Pa|           0.5|
|               Density|           1.2|           1.2|    kg/m^3|             1|
|            Velocity-X|        9.2372|       9.51999|       m/s|      0.970296|
|            Velocity-Y|        2.3031|       9.51999|       m/s|      0.241923|
|    Velocity Magnitude|       9.51999|       9.51999|       m/s|             1|
+------------------------------------------------------------------------------+
|             Viscosity|      1.92e-05|        11.424|   N.s/m^2|   1.68067e-06|
|          Conductivity|             -|       3.59312|   W/m^2.K|             -|
|     Turb. Kin. Energy|       1.35945|       90.6301|   m^2/s^2|         0.015|
|     Spec. Dissipation|       8496.58|       9.51999|       1/s|       892.499|
+------------------------------------------------------------------------------+
|           Mach Number|             -|             -|         -|     0.0276747|
|       Reynolds Number|             -|             -|         -|        594999|
+------------------------------------------------------------------------------+
Initialize Jacobian structure (Navier-Stokes). MG level: 0.
Initialize Jacobian structure (SA model).

------------------- Numerics Preprocessing ( Zone 0 ) -------------------

----------------- Integration Preprocessing ( Zone 0 ) ------------------

------------------- Iteration Preprocessing ( Zone 0 ) ------------------
Euler/Navier-Stokes/RANS fluid iteration.

------------------------------ Begin Solver -----------------------------

Simulation Run using the Single-zone Driver
+-----------------------------------------------------------------------------+
|  Inner_Iter|     Min CFL|     Max CFL|      rms[P]|  Cauchy[CD]|          CD|
+-----------------------------------------------------------------------------+
|           0|  2.4000e+00|  2.4000e+00|   -5.708896|  1.0000e+00|    0.144671|
|          10|  1.4860e+01|  1.4860e+01|   -5.768653|  1.8696e-04|    0.138106|
|          20|  6.3896e+00|  6.3896e+00|   -6.011797|  2.9175e-03|    0.065198|
|          30|  3.9563e+01|  3.9563e+01|   -6.055223|  3.1127e-03|    0.070002|
|          40|  2.0413e+01|  2.0413e+01|   -6.193262|  3.2887e-03|    0.074365|
|          50|  1.0533e+01|  1.0533e+01|   -6.181821|  3.4097e-03|    0.071340|
|          60|  6.5217e+01|  6.5217e+01|   -6.366049|  3.4901e-03|    0.072459|
|          70|  3.3651e+01|  3.3651e+01|   -6.422988|  3.5834e-03|    0.074791|
|          80|  1.7363e+01|  1.7363e+01|   -6.464470|  3.6328e-03|    0.074222|
|          90|  5.1845e+01|  5.1845e+01|   -6.523224|  3.8535e-03|    0.068702|
|         100|  8.9589e+00|  8.9589e+00|   -6.533634|  3.9250e-03|    0.068197|
|         110|  5.5471e+01|  5.5471e+01|   -6.528753|  4.0017e-03|    0.070115|
|         120|  2.8622e+01|  2.8622e+01|   -6.595198|  4.0333e-03|    0.070906|
|         130|  1.4768e+01|  1.4768e+01|   -6.679127|  4.0684e-03|    0.070074|
|         140|  5.2917e+01|  5.2917e+01|   -6.640518|  4.1586e-03|    0.067817|
|         150|  7.6201e+00|  7.6201e+00|   -6.744094|  4.1822e-03|    0.067858|
|         160|  4.7182e+01|  4.7182e+01|   -6.736842|  4.1875e-03|    0.067758|
|         170|  2.4345e+01|  2.4345e+01|   -6.729569|  4.2063e-03|    0.067288|
|         180|  1.2561e+01|  1.2561e+01|   -6.839660|  4.2439e-03|    0.066350|
|         190|  5.4011e+01|  5.4011e+01|   -6.948825|  4.2939e-03|    0.065098|
|         200|  5.4011e+01|  5.4011e+01|   -6.884755|  4.3742e-03|    0.063093|
+-----------------------------------------------------------------------+
|        File Writing Summary       |              Filename             |
+-----------------------------------------------------------------------+
|SU2 binary restart                 |restart_flow_G3.dat                |
|Paraview                           |flow_G3.vtu                        |
|Paraview surface                   |surface_flow_G3.vtu                |
+-----------------------------------------------------------------------+
+-----------------------------------------------------------------------------+
|  Inner_Iter|     Min CFL|     Max CFL|      rms[P]|  Cauchy[CD]|          CD|
+-----------------------------------------------------------------------------+
|         210|  9.3332e+00|  9.3332e+00|   -6.903187|  4.3881e-03|    0.062744|
|         220|  5.7789e+01|  5.7789e+01|   -6.983040|  4.3994e-03|    0.062463|
|         230|  2.9818e+01|  2.9818e+01|   -7.060241|  4.4186e-03|    0.061981|
|         240|  1.5385e+01|  1.5385e+01|   -7.274162|  4.4630e-03|    0.060873|
|         250|  5.5128e+01|  5.5128e+01|   -7.075218|  4.5231e-03|    0.059369|
|         260|  5.5128e+01|  5.5128e+01|   -7.123352|  4.3831e-03|    0.058196|
|         270|  2.8445e+01|  2.8445e+01|   -7.141686|  1.6627e-03|    0.057943|
|         280|  5.8983e+01|  5.8983e+01|   -7.047583|  1.4991e-03|    0.057152|
|         290|  1.0192e+01|  1.0192e+01|   -6.951608|  1.3684e-03|    0.056020|
|         300|  6.3108e+01|  6.3108e+01|   -7.068778|  1.2653e-03|    0.055572|
|         310|  3.2562e+01|  3.2562e+01|   -7.124413|  1.1939e-03|    0.055347|
|         320|  1.6801e+01|  1.6801e+01|   -7.160294|  1.1100e-03|    0.055114|
|         330|  8.6692e+00|  8.6692e+00|   -7.050518|  1.0676e-03|    0.054938|
|         340|  5.3677e+01|  5.3677e+01|   -7.167283|  8.5257e-04|    0.054794|
|         350|  2.7696e+01|  2.7696e+01|   -7.190726|  7.8772e-04|    0.054629|
|         360|  5.7431e+01|  5.7431e+01|   -7.087081|  7.2632e-04|    0.054246|
|         370|  5.7431e+01|  5.7431e+01|   -7.024254|  7.0750e-04|    0.053926|
|         380|  5.7431e+01|  5.7431e+01|   -7.011864|  6.7632e-04|    0.053830|
|         390|  5.7431e+01|  5.7431e+01|   -7.041916|  5.8637e-04|    0.053830|
|         400|  1.7149e+01|  1.7149e+01|   -7.124910|  5.6345e-04|    0.053846|
+-----------------------------------------------------------------------+
|        File Writing Summary       |              Filename             |
+-----------------------------------------------------------------------+
|SU2 binary restart                 |restart_flow_G3.dat                |
|Paraview                           |flow_G3.vtu                        |
|Paraview surface                   |surface_flow_G3.vtu                |
+-----------------------------------------------------------------------+
+-----------------------------------------------------------------------------+
|  Inner_Iter|     Min CFL|     Max CFL|      rms[P]|  Cauchy[CD]|          CD|
+-----------------------------------------------------------------------------+
|         410|  8.8484e+00|  8.8484e+00|   -7.074235|  5.5953e-04|    0.053882|
|         420|  5.4787e+01|  5.4787e+01|   -7.122830|  5.4314e-04|    0.053943|
|         430|  2.8269e+01|  2.8269e+01|   -7.141972|  5.0765e-04|    0.053993|
|         440|  1.4586e+01|  1.4586e+01|   -7.153541|  4.6128e-04|    0.054086|
|         450|  5.2265e+01|  5.2265e+01|   -7.145980|  3.8762e-04|    0.054250|
|         460|  5.2265e+01|  5.2265e+01|   -7.146870|  3.8482e-04|    0.054529|
|         470|  6.2718e+00|  6.2718e+00|   -7.132661|  3.8644e-04|    0.054850|
|         480|  3.8833e+01|  3.8833e+01|   -7.148143|  3.7182e-04|    0.054967|
|         490|  5.5920e+01|  5.5920e+01|   -7.119069|  3.4222e-04|    0.055335|
|         500|  1.3915e+01|  1.3915e+01|   -7.139573|  2.9297e-04|    0.055608|
|         510|  5.9830e+01|  5.9830e+01|   -7.113888|  2.5597e-04|    0.055856|
|         520|  5.9830e+01|  5.9830e+01|   -7.112120|  2.6271e-04|    0.056277|
|         530|  1.7865e+01|  1.7865e+01|   -7.157857|  2.4072e-04|    0.056519|
|         540|  9.2181e+00|  9.2181e+00|   -7.139157|  2.0312e-04|    0.056711|
|         550|  5.7076e+01|  5.7076e+01|   -7.198318|  1.9126e-04|    0.056862|
|         560|  2.9450e+01|  2.9450e+01|   -7.233859|  1.8781e-04|    0.057001|
|         570|  1.5196e+01|  1.5196e+01|   -7.255772|  1.8532e-04|    0.057171|
|         580|  6.5338e+01|  6.5338e+01|   -7.288208|  1.8536e-04|    0.057349|
|         590|  6.5338e+01|  6.5338e+01|   -7.343168|  1.9007e-04|    0.057610|
|         600|  6.5338e+01|  6.5338e+01|   -7.398617|  1.9124e-04|    0.057804|
+-----------------------------------------------------------------------+
|        File Writing Summary       |              Filename             |
+-----------------------------------------------------------------------+
|SU2 binary restart                 |restart_flow_G3.dat                |
|Paraview                           |flow_G3.vtu                        |
|Paraview surface                   |surface_flow_G3.vtu                |
+-----------------------------------------------------------------------+
+-----------------------------------------------------------------------------+
|  Inner_Iter|     Min CFL|     Max CFL|      rms[P]|  Cauchy[CD]|          CD|
+-----------------------------------------------------------------------------+
|         610|  6.5338e+01|  6.5338e+01|   -7.433680|  1.8096e-04|    0.057931|
|         620|  6.5338e+01|  6.5338e+01|   -7.443568|  1.7074e-04|    0.057995|
|         630|  6.5338e+01|  6.5338e+01|   -7.431489|  1.6747e-04|    0.058007|
|         640|  1.6258e+01|  1.6258e+01|   -7.507430|  1.6789e-04|    0.057989|
|         650|  8.3889e+00|  8.3889e+00|   -7.408183|  1.6858e-04|    0.057956|
|         660|  5.1942e+01|  5.1942e+01|   -7.450758|  1.6813e-04|    0.057931|
|         670|  2.6801e+01|  2.6801e+01|   -7.456453|  1.6696e-04|    0.057899|
|         680|  6.6689e+01|  6.6689e+01|   -7.387195|  1.6805e-04|    0.057822|
|         690|  6.6689e+01|  6.6689e+01|   -7.352129|  1.6954e-04|    0.057692|
|         700|  6.6689e+01|  6.6689e+01|   -7.345184|  1.6895e-04|    0.057542|
|         710|  6.6689e+01|  6.6689e+01|   -7.368033|  1.6437e-04|    0.057378|
|         720|  6.6689e+01|  6.6689e+01|   -7.417664|  1.5879e-04|    0.057196|
|         730|  6.6689e+01|  6.6689e+01|   -7.491006|  1.6182e-04|    0.057004|
|         740|  9.6032e+00|  9.6032e+00|   -7.534530|  1.5361e-04|    0.056841|
|         750|  5.9460e+01|  5.9460e+01|   -7.648790|  1.4608e-04|    0.056757|
|         760|  3.0680e+01|  3.0680e+01|   -7.703523|  1.3913e-04|    0.056682|
|         770|  1.0993e+01|  1.0993e+01|   -7.679813|  1.2681e-04|    0.056569|
|         780|  6.8068e+01|  6.8068e+01|   -7.774546|  1.2095e-04|    0.056474|
|         790|  3.5121e+01|  3.5121e+01|   -7.830046|  1.1596e-04|    0.056406|
|         800|  6.0690e+01|  6.0690e+01|   -7.810439|  1.1687e-04|    0.056233|
+-----------------------------------------------------------------------+
|        File Writing Summary       |              Filename             |
+-----------------------------------------------------------------------+
|SU2 binary restart                 |restart_flow_G3.dat                |
|Paraview                           |flow_G3.vtu                        |
|Paraview surface                   |surface_flow_G3.vtu                |
+-----------------------------------------------------------------------+
+-----------------------------------------------------------------------------+
|  Inner_Iter|     Min CFL|     Max CFL|      rms[P]|  Cauchy[CD]|          CD|
+-----------------------------------------------------------------------------+
|         810|  6.0690e+01|  6.0690e+01|   -7.805675|  1.1935e-04|    0.056032|
|         820|  6.0690e+01|  6.0690e+01|   -7.776263|  1.2054e-04|    0.055832|
|         830|  2.6095e+01|  2.6095e+01|   -7.822745|  1.1738e-04|    0.055733|
|         840|  1.3465e+01|  1.3465e+01|   -7.819166|  1.1093e-04|    0.055633|
|         850|  6.9475e+00|  6.9475e+00|   -7.759807|  1.0786e-04|    0.055516|
|         860|  4.3017e+01|  4.3017e+01|   -7.786711|  1.0536e-04|    0.055452|
|         870|  1.2845e+01|  1.2845e+01|   -7.716024|  1.0866e-04|    0.055305|
|         880|  6.6276e+00|  6.6276e+00|   -7.739424|  1.1285e-04|    0.055185|
|         890|  4.1037e+01|  4.1037e+01|   -7.765017|  1.1464e-04|    0.055123|
|         900|  2.1174e+01|  2.1174e+01|   -7.768085|  1.1723e-04|    0.055026|
|         910|  6.3225e+01|  6.3225e+01|   -7.740041|  1.2248e-04|    0.054869|
|         920|  6.3225e+01|  6.3225e+01|   -7.756605|  1.2982e-04|    0.054654|
|         930|  1.8879e+01|  1.8879e+01|   -7.834924|  1.3112e-04|    0.054544|
|         940|  9.7411e+00|  9.7411e+00|   -7.795034|  1.3040e-04|    0.054432|
|         950|  6.0314e+01|  6.0314e+01|   -7.894005|  1.2787e-04|    0.054345|
|         960|  1.5008e+01|  1.5008e+01|   -7.942697|  1.2567e-04|    0.054236|
|         970|  7.7439e+00|  7.7439e+00|   -7.929984|  1.2267e-04|    0.054129|
|         980|  4.7948e+01|  4.7948e+01|   -7.993363|  1.1773e-04|    0.054061|
|         990|  5.7538e+01|  5.7538e+01|   -7.992073|  1.1839e-04|    0.053881|
|        1000|  5.7538e+01|  5.7538e+01|   -8.007331|  1.2232e-04|    0.053699|
+-----------------------------------------------------------------------+
|        File Writing Summary       |              Filename             |
+-----------------------------------------------------------------------+
|SU2 binary restart                 |restart_flow_G3.dat                |
|Paraview                           |flow_G3.vtu                        |
|Paraview surface                   |surface_flow_G3.vtu                |
+-----------------------------------------------------------------------+
+-----------------------------------------------------------------------------+
|  Inner_Iter|     Min CFL|     Max CFL|      rms[P]|  Cauchy[CD]|          CD|
+-----------------------------------------------------------------------------+
|        1010|  5.7538e+01|  5.7538e+01|   -8.012279|  1.2643e-04|    0.053521|
|        1020|  5.7538e+01|  5.7538e+01|   -8.012557|  1.2883e-04|    0.053348|
|        1030|  5.7538e+01|  5.7538e+01|   -8.014205|  1.3185e-04|    0.053178|
|        1040|  5.7538e+00|  5.7538e+00|   -8.019581|  1.3588e-04|    0.053010|
|        1050|  3.5626e+01|  3.5626e+01|   -8.092540|  1.3078e-04|    0.052963|
|        1060|  1.8382e+01|  1.8382e+01|   -8.100601|  1.2557e-04|    0.052893|
|        1070|  5.4889e+01|  5.4889e+01|   -8.061459|  1.2199e-04|    0.052782|
|        1080|  5.4889e+01|  5.4889e+01|   -8.063815|  1.2419e-04|    0.052628|
|        1090|  5.4889e+01|  5.4889e+01|   -8.070469|  1.2631e-04|    0.052475|
|        1100|  5.4889e+01|  5.4889e+01|   -8.078543|  1.2762e-04|    0.052325|
|        1110|  5.4889e+01|  5.4889e+01|   -8.086940|  1.3091e-04|    0.052179|
|        1120|  5.4889e+01|  5.4889e+01|   -8.091653|  1.3094e-04|    0.052031|
|        1130|  5.4889e+01|  5.4889e+01|   -8.094054|  1.3202e-04|    0.051885|
|        1140|  2.3601e+01|  2.3601e+01|   -8.152756|  1.3168e-04|    0.051831|
|        1150|  1.2178e+01|  1.2178e+01|   -8.136104|  1.3059e-04|    0.051761|
|        1160|  5.2362e+01|  5.2362e+01|   -8.124096|  1.2746e-04|    0.051682|
|        1170|  5.2362e+01|  5.2362e+01|   -8.117309|  1.2418e-04|    0.051549|
|        1180|  5.2362e+01|  5.2362e+01|   -8.120843|  1.2515e-04|    0.051415|
|        1190|  2.2515e+01|  2.2515e+01|   -8.172495|  1.2265e-04|    0.051365|
|        1200|  1.1617e+01|  1.1617e+01|   -8.160109|  1.2176e-04|    0.051301|
+-----------------------------------------------------------------------+
|        File Writing Summary       |              Filename             |
+-----------------------------------------------------------------------+
|SU2 binary restart                 |restart_flow_G3.dat                |
|Paraview                           |flow_G3.vtu                        |
|Paraview surface                   |surface_flow_G3.vtu                |
+-----------------------------------------------------------------------+
+-----------------------------------------------------------------------------+
|  Inner_Iter|     Min CFL|     Max CFL|      rms[P]|  Cauchy[CD]|          CD|
+-----------------------------------------------------------------------------+
|        1210|  4.9951e+01|  4.9951e+01|   -8.158581|  1.2024e-04|    0.051230|
|        1220|  4.9951e+01|  4.9951e+01|   -8.160215|  1.2068e-04|    0.051112|
|        1230|  4.9951e+01|  4.9951e+01|   -8.163850|  1.2281e-04|    0.050991|
|        1240|  4.9951e+01|  4.9951e+01|   -8.166224|  1.2038e-04|    0.050871|
|        1250|  2.1478e+01|  2.1478e+01|   -8.218818|  1.1485e-04|    0.050827|
|        1260|  1.1082e+01|  1.1082e+01|   -8.208869|  1.1001e-04|    0.050771|
|        1270|  4.7652e+01|  4.7652e+01|   -8.186841|  1.0559e-04|    0.050708|
|        1280|  4.7652e+01|  4.7652e+01|   -8.174976|  1.0306e-04|    0.050601|
|        1290|  4.7652e+01|  4.7652e+01|   -8.166545|  1.0074e-04|    0.050491|
|        1300|  4.7652e+01|  4.7652e+01|   -8.161289|  1.0319e-04|    0.050383|
|        1310|  4.7652e+01|  4.7652e+01|   -8.158433|  1.0461e-04|    0.050277|
|        1320|  4.7652e+01|  4.7652e+01|   -8.156291|  1.0438e-04|    0.050172|
|        1330|  4.7652e+01|  4.7652e+01|   -8.155770|  1.0249e-04|    0.050066|
|        1340|  4.7652e+01|  4.7652e+01|   -8.157141|  1.0061e-04|    0.049960|
|        1350|  4.7652e+01|  4.7652e+01|   -8.160352|  9.8852e-05|    0.049854|
|        1360|  4.7652e+01|  4.7652e+01|   -8.163972|  9.7215e-05|    0.049748|
|        1370|  4.7652e+01|  4.7652e+01|   -8.167501|  9.5522e-05|    0.049643|
|        1380|  4.7652e+01|  4.7652e+01|   -8.171176|  9.3890e-05|    0.049538|
|        1390|  4.7652e+01|  4.7652e+01|   -8.174889|  9.5941e-05|    0.049432|
|        1400|  4.7652e+01|  4.7652e+01|   -8.177507|  9.7362e-05|    0.049327|
+-----------------------------------------------------------------------+
|        File Writing Summary       |              Filename             |
+-----------------------------------------------------------------------+
|SU2 binary restart                 |restart_flow_G3.dat                |
|Paraview                           |flow_G3.vtu                        |
|Paraview surface                   |surface_flow_G3.vtu                |
+-----------------------------------------------------------------------+
+-----------------------------------------------------------------------------+
|  Inner_Iter|     Min CFL|     Max CFL|      rms[P]|  Cauchy[CD]|          CD|
+-----------------------------------------------------------------------------+
|        1410|  4.7652e+01|  4.7652e+01|   -8.179009|  9.8409e-05|    0.049222|
|        1420|  5.7182e+00|  5.7182e+00|   -8.179700|  9.6884e-05|    0.049127|
|        1430|  3.5406e+01|  3.5406e+01|   -8.220385|  9.2898e-05|    0.049093|
|        1440|  1.8268e+01|  1.8268e+01|   -8.224765|  9.2585e-05|    0.049051|
|        1450|  4.5458e+01|  4.5458e+01|   -8.193143|  9.3073e-05|    0.048974|
|        1460|  4.5458e+01|  4.5458e+01|   -8.190703|  9.4118e-05|    0.048877|
|        1470|  4.5458e+01|  4.5458e+01|   -8.187988|  9.3312e-05|    0.048779|
|        1480|  4.5458e+01|  4.5458e+01|   -8.186568|  9.2316e-05|    0.048683|
|        1490|  4.5458e+01|  4.5458e+01|   -8.186477|  9.1341e-05|    0.048588|
|        1500|  4.5458e+01|  4.5458e+01|   -8.186081|  9.3336e-05|    0.048494|
|        1510|  4.5458e+01|  4.5458e+01|   -8.185666|  9.4878e-05|    0.048399|
|        1520|  4.5458e+01|  4.5458e+01|   -8.185779|  9.6146e-05|    0.048305|
|        1530|  4.5458e+01|  4.5458e+01|   -8.186492|  9.5593e-05|    0.048211|
|        1540|  4.5458e+01|  4.5458e+01|   -8.187414|  9.4892e-05|    0.048119|
|        1550|  4.5458e+01|  4.5458e+01|   -8.188786|  9.4276e-05|    0.048026|
|        1560|  4.5458e+01|  4.5458e+01|   -8.190962|  9.3718e-05|    0.047934|
|        1570|  4.5458e+01|  4.5458e+01|   -8.193618|  9.3193e-05|    0.047843|
|        1580|  4.5458e+01|  4.5458e+01|   -8.196870|  9.2593e-05|    0.047751|
|        1590|  4.5458e+01|  4.5458e+01|   -8.200403|  9.1974e-05|    0.047660|
|        1600|  4.5458e+01|  4.5458e+01|   -8.204143|  9.1367e-05|    0.047570|
+-----------------------------------------------------------------------+
|        File Writing Summary       |              Filename             |
+-----------------------------------------------------------------------+
|SU2 binary restart                 |restart_flow_G3.dat                |
|Paraview                           |flow_G3.vtu                        |
|Paraview surface                   |surface_flow_G3.vtu                |
+-----------------------------------------------------------------------+
+-----------------------------------------------------------------------------+
|  Inner_Iter|     Min CFL|     Max CFL|      rms[P]|  Cauchy[CD]|          CD|
+-----------------------------------------------------------------------------+
|        1610|  4.5458e+01|  4.5458e+01|   -8.208216|  9.0763e-05|    0.047479|
|        1620|  4.5458e+01|  4.5458e+01|   -8.212522|  9.0151e-05|    0.047389|
|        1630|  4.5458e+01|  4.5458e+01|   -8.216745|  8.9508e-05|    0.047300|
|        1640|  4.5458e+01|  4.5458e+01|   -8.220583|  8.8828e-05|    0.047211|
|        1650|  4.5458e+01|  4.5458e+01|   -8.224114|  8.8128e-05|    0.047123|
|        1660|  4.5458e+01|  4.5458e+01|   -8.227330|  8.7433e-05|    0.047036|
|        1670|  4.5458e+01|  4.5458e+01|   -8.230230|  8.7117e-05|    0.046949|
|        1680|  4.5458e+01|  4.5458e+01|   -8.232733|  8.9172e-05|    0.046863|
|        1690|  4.5458e+01|  4.5458e+01|   -8.234673|  9.0909e-05|    0.046778|
|        1700|  4.5458e+01|  4.5458e+01|   -8.236264|  9.1236e-05|    0.046693|
|        1710|  4.5458e+01|  4.5458e+01|   -8.237767|  9.0707e-05|    0.046610|
|        1720|  4.5458e+01|  4.5458e+01|   -8.239184|  9.0130e-05|    0.046526|
|        1730|  4.5458e+01|  4.5458e+01|   -8.240615|  8.9575e-05|    0.046443|
|        1740|  4.5458e+01|  4.5458e+01|   -8.241924|  8.9064e-05|    0.046361|
|        1750|  4.5458e+01|  4.5458e+01|   -8.243169|  8.8571e-05|    0.046280|
|        1760|  4.5458e+01|  4.5458e+01|   -8.244806|  8.8012e-05|    0.046199|
|        1770|  4.5458e+01|  4.5458e+01|   -8.246806|  8.7447e-05|    0.046119|
|        1780|  4.5458e+01|  4.5458e+01|   -8.249168|  8.6899e-05|    0.046039|
|        1790|  4.5458e+01|  4.5458e+01|   -8.251662|  8.6354e-05|    0.045960|
|        1800|  4.5458e+01|  4.5458e+01|   -8.254568|  8.5808e-05|    0.045881|
+-----------------------------------------------------------------------+
|        File Writing Summary       |              Filename             |
+-----------------------------------------------------------------------+
|SU2 binary restart                 |restart_flow_G3.dat                |
|Paraview                           |flow_G3.vtu                        |
|Paraview surface                   |surface_flow_G3.vtu                |
+-----------------------------------------------------------------------+
+-----------------------------------------------------------------------------+
|  Inner_Iter|     Min CFL|     Max CFL|      rms[P]|  Cauchy[CD]|          CD|
+-----------------------------------------------------------------------------+
|        1810|  4.5458e+01|  4.5458e+01|   -8.257738|  8.5260e-05|    0.045803|
|        1820|  4.5458e+01|  4.5458e+01|   -8.261061|  8.4706e-05|    0.045725|
|        1830|  4.5458e+01|  4.5458e+01|   -8.264578|  8.4144e-05|    0.045648|
|        1840|  4.5458e+01|  4.5458e+01|   -8.268336|  8.3579e-05|    0.045571|
|        1850|  4.5458e+01|  4.5458e+01|   -8.272098|  8.3006e-05|    0.045495|
|        1860|  4.5458e+01|  4.5458e+01|   -8.275742|  8.2419e-05|    0.045419|
|        1870|  4.5458e+01|  4.5458e+01|   -8.279264|  8.1819e-05|    0.045344|
|        1880|  4.5458e+01|  4.5458e+01|   -8.282515|  8.1220e-05|    0.045269|
|        1890|  4.5458e+01|  4.5458e+01|   -8.285687|  8.0628e-05|    0.045196|
|        1900|  4.5458e+01|  4.5458e+01|   -8.288767|  8.0034e-05|    0.045123|
|        1910|  4.5458e+01|  4.5458e+01|   -8.291705|  7.9434e-05|    0.045050|
|        1920|  4.5458e+01|  4.5458e+01|   -8.294324|  7.8831e-05|    0.044979|
|        1930|  4.5458e+01|  4.5458e+01|   -8.296731|  7.8235e-05|    0.044907|
|        1940|  4.5458e+01|  4.5458e+01|   -8.299014|  7.7647e-05|    0.044837|
|        1950|  4.5458e+01|  4.5458e+01|   -8.301179|  7.7068e-05|    0.044767|
|        1960|  4.5458e+01|  4.5458e+01|   -8.303249|  7.6493e-05|    0.044697|
|        1970|  4.5458e+01|  4.5458e+01|   -8.305409|  7.5916e-05|    0.044628|
|        1980|  4.5458e+01|  4.5458e+01|   -8.307534|  7.5339e-05|    0.044560|
|        1990|  4.5458e+01|  4.5458e+01|   -8.309712|  7.4760e-05|    0.044492|
|        2000|  4.5458e+01|  4.5458e+01|   -8.311928|  7.4182e-05|    0.044425|
+-----------------------------------------------------------------------+
|        File Writing Summary       |              Filename             |
+-----------------------------------------------------------------------+
|SU2 binary restart                 |restart_flow_G3.dat                |
|Paraview                           |flow_G3.vtu                        |
|Paraview surface                   |surface_flow_G3.vtu                |
+-----------------------------------------------------------------------+
+-----------------------------------------------------------------------------+
|  Inner_Iter|     Min CFL|     Max CFL|      rms[P]|  Cauchy[CD]|          CD|
+-----------------------------------------------------------------------------+
|        2010|  4.5458e+01|  4.5458e+01|   -8.314476|  7.3609e-05|    0.044359|
|        2020|  4.5458e+01|  4.5458e+01|   -8.317173|  7.3045e-05|    0.044292|
|        2030|  4.5458e+01|  4.5458e+01|   -8.319955|  7.2490e-05|    0.044227|
|        2040|  4.5458e+01|  4.5458e+01|   -8.322825|  7.1937e-05|    0.044161|
|        2050|  4.5458e+01|  4.5458e+01|   -8.326003|  7.1378e-05|    0.044097|
|        2060|  4.5458e+01|  4.5458e+01|   -8.329205|  7.0813e-05|    0.044032|
|        2070|  4.5458e+01|  4.5458e+01|   -8.332400|  7.0250e-05|    0.043969|
|        2080|  4.5458e+01|  4.5458e+01|   -8.335762|  6.9690e-05|    0.043905|
|        2090|  4.5458e+01|  4.5458e+01|   -8.339034|  6.9132e-05|    0.043843|
|        2100|  4.5458e+01|  4.5458e+01|   -8.342272|  6.8573e-05|    0.043780|
|        2110|  4.5458e+01|  4.5458e+01|   -8.345612|  6.8009e-05|    0.043719|
|        2120|  4.5458e+01|  4.5458e+01|   -8.348841|  6.7445e-05|    0.043658|
|        2130|  4.5458e+01|  4.5458e+01|   -8.351994|  6.6884e-05|    0.043597|
|        2140|  4.5458e+01|  4.5458e+01|   -8.355028|  6.6328e-05|    0.043537|
|        2150|  4.5458e+01|  4.5458e+01|   -8.357866|  6.5781e-05|    0.043478|
|        2160|  4.5458e+01|  4.5458e+01|   -8.360658|  6.5246e-05|    0.043419|
|        2170|  4.5458e+01|  4.5458e+01|   -8.363341|  6.4718e-05|    0.043361|
|        2180|  4.5458e+01|  4.5458e+01|   -8.365985|  6.4194e-05|    0.043303|
|        2190|  4.5458e+01|  4.5458e+01|   -8.368458|  6.3673e-05|    0.043245|
|        2200|  4.5458e+01|  4.5458e+01|   -8.371016|  6.3156e-05|    0.043188|
+-----------------------------------------------------------------------+
|        File Writing Summary       |              Filename             |
+-----------------------------------------------------------------------+
|SU2 binary restart                 |restart_flow_G3.dat                |
|Paraview                           |flow_G3.vtu                        |
|Paraview surface                   |surface_flow_G3.vtu                |
+-----------------------------------------------------------------------+
+-----------------------------------------------------------------------------+
|  Inner_Iter|     Min CFL|     Max CFL|      rms[P]|  Cauchy[CD]|          CD|
+-----------------------------------------------------------------------------+
|        2210|  4.5458e+01|  4.5458e+01|   -8.373574|  6.2640e-05|    0.043131|
|        2220|  4.5458e+01|  4.5458e+01|   -8.376221|  6.2125e-05|    0.043075|
|        2230|  4.5458e+01|  4.5458e+01|   -8.378870|  6.1614e-05|    0.043020|
|        2240|  4.5458e+01|  4.5458e+01|   -8.381718|  6.1110e-05|    0.042965|
|        2250|  4.5458e+01|  4.5458e+01|   -8.384644|  6.0610e-05|    0.042910|
|        2260|  4.5458e+01|  4.5458e+01|   -8.387609|  6.0110e-05|    0.042856|
|        2270|  4.5458e+01|  4.5458e+01|   -8.390658|  5.9611e-05|    0.042802|
|        2280|  4.5458e+01|  4.5458e+01|   -8.393712|  5.9111e-05|    0.042749|
|        2290|  4.5458e+01|  4.5458e+01|   -8.396878|  5.8612e-05|    0.042696|
|        2300|  4.5458e+01|  4.5458e+01|   -8.400078|  5.8117e-05|    0.042644|
|        2310|  4.5458e+01|  4.5458e+01|   -8.403301|  5.7628e-05|    0.042592|
|        2320|  4.5458e+01|  4.5458e+01|   -8.406587|  5.7142e-05|    0.042540|
|        2330|  4.5458e+01|  4.5458e+01|   -8.409848|  5.6659e-05|    0.042489|
|        2340|  4.5458e+01|  4.5458e+01|   -8.413048|  5.6178e-05|    0.042438|
|        2350|  4.5458e+01|  4.5458e+01|   -8.416193|  5.5698e-05|    0.042388|
|        2360|  4.5458e+01|  4.5458e+01|   -8.419327|  5.5224e-05|    0.042338|
|        2370|  4.5458e+01|  4.5458e+01|   -8.422397|  5.4759e-05|    0.042289|
|        2380|  4.5458e+01|  4.5458e+01|   -8.425451|  5.4299e-05|    0.042240|
|        2390|  4.5458e+01|  4.5458e+01|   -8.428453|  5.3840e-05|    0.042191|
|        2400|  4.5458e+01|  4.5458e+01|   -8.431335|  5.3381e-05|    0.042144|
+-----------------------------------------------------------------------+
|        File Writing Summary       |              Filename             |
+-----------------------------------------------------------------------+
|SU2 binary restart                 |restart_flow_G3.dat                |
|Paraview                           |flow_G3.vtu                        |
|Paraview surface                   |surface_flow_G3.vtu                |
+-----------------------------------------------------------------------+
+-----------------------------------------------------------------------------+
|  Inner_Iter|     Min CFL|     Max CFL|      rms[P]|  Cauchy[CD]|          CD|
+-----------------------------------------------------------------------------+
|        2410|  4.5458e+01|  4.5458e+01|   -8.434327|  5.2924e-05|    0.042096|
|        2420|  4.5458e+01|  4.5458e+01|   -8.437462|  5.2469e-05|    0.042049|
|        2430|  4.5458e+01|  4.5458e+01|   -8.440698|  5.2016e-05|    0.042002|
|        2440|  4.5458e+01|  4.5458e+01|   -8.443778|  5.1567e-05|    0.041956|
|        2450|  4.5458e+01|  4.5458e+01|   -8.446751|  5.1120e-05|    0.041910|
|        2460|  4.5458e+01|  4.5458e+01|   -8.449793|  5.0677e-05|    0.041864|
|        2470|  4.5458e+01|  4.5458e+01|   -8.452790|  5.0239e-05|    0.041819|
|        2480|  4.5458e+01|  4.5458e+01|   -8.455810|  4.9807e-05|    0.041774|
|        2490|  4.5458e+01|  4.5458e+01|   -8.458954|  4.9379e-05|    0.041730|
|        2500|  4.5458e+01|  4.5458e+01|   -8.462058|  4.8955e-05|    0.041686|
|        2510|  4.5458e+01|  4.5458e+01|   -8.465143|  4.8533e-05|    0.041643|
|        2520|  4.5458e+01|  4.5458e+01|   -8.468260|  4.8113e-05|    0.041599|
|        2530|  4.5458e+01|  4.5458e+01|   -8.471435|  4.7695e-05|    0.041557|
|        2540|  4.5458e+01|  4.5458e+01|   -8.474627|  4.7281e-05|    0.041514|
|        2550|  4.5458e+01|  4.5458e+01|   -8.477874|  4.6870e-05|    0.041472|
|        2560|  4.5458e+01|  4.5458e+01|   -8.481081|  4.6458e-05|    0.041430|
|        2570|  4.5458e+01|  4.5458e+01|   -8.484359|  4.6045e-05|    0.041389|
|        2580|  4.5458e+01|  4.5458e+01|   -8.487686|  4.5633e-05|    0.041348|
|        2590|  4.5458e+01|  4.5458e+01|   -8.491050|  4.5226e-05|    0.041307|
|        2600|  4.5458e+01|  4.5458e+01|   -8.494362|  4.4826e-05|    0.041267|
+-----------------------------------------------------------------------+
|        File Writing Summary       |              Filename             |
+-----------------------------------------------------------------------+
|SU2 binary restart                 |restart_flow_G3.dat                |
|Paraview                           |flow_G3.vtu                        |
|Paraview surface                   |surface_flow_G3.vtu                |
+-----------------------------------------------------------------------+
+-----------------------------------------------------------------------------+
|  Inner_Iter|     Min CFL|     Max CFL|      rms[P]|  Cauchy[CD]|          CD|
+-----------------------------------------------------------------------------+
|        2610|  4.5458e+01|  4.5458e+01|   -8.497524|  4.4430e-05|    0.041227|
|        2620|  4.5458e+01|  4.5458e+01|   -8.500689|  4.4034e-05|    0.041188|
|        2630|  4.5458e+01|  4.5458e+01|   -8.503901|  4.3642e-05|    0.041149|
|        2640|  4.5458e+01|  4.5458e+01|   -8.507197|  4.3255e-05|    0.041110|
|        2650|  4.5458e+01|  4.5458e+01|   -8.510425|  4.2873e-05|    0.041072|
|        2660|  4.5458e+01|  4.5458e+01|   -8.513566|  4.2492e-05|    0.041034|
|        2670|  4.5458e+01|  4.5458e+01|   -8.516728|  4.2111e-05|    0.040996|
|        2680|  4.5458e+01|  4.5458e+01|   -8.519994|  4.1730e-05|    0.040959|
|        2690|  4.5458e+01|  4.5458e+01|   -8.523339|  4.1351e-05|    0.040922|
|        2700|  4.5458e+01|  4.5458e+01|   -8.526630|  4.0978e-05|    0.040885|
|        2710|  4.5458e+01|  4.5458e+01|   -8.529767|  4.0612e-05|    0.040849|
|        2720|  4.5458e+01|  4.5458e+01|   -8.532917|  4.0251e-05|    0.040813|
|        2730|  4.5458e+01|  4.5458e+01|   -8.536135|  3.9895e-05|    0.040777|
|        2740|  4.5458e+01|  4.5458e+01|   -8.539480|  3.9541e-05|    0.040742|
|        2750|  4.5458e+01|  4.5458e+01|   -8.542847|  3.9191e-05|    0.040706|
|        2760|  4.5458e+01|  4.5458e+01|   -8.546093|  3.8843e-05|    0.040671|
|        2770|  4.5458e+01|  4.5458e+01|   -8.549350|  3.8498e-05|    0.040637|
|        2780|  4.5458e+01|  4.5458e+01|   -8.552531|  3.8154e-05|    0.040603|
|        2790|  4.5458e+01|  4.5458e+01|   -8.555896|  3.7808e-05|    0.040569|
|        2800|  4.5458e+01|  4.5458e+01|   -8.559237|  3.7463e-05|    0.040535|
+-----------------------------------------------------------------------+
|        File Writing Summary       |              Filename             |
+-----------------------------------------------------------------------+
|SU2 binary restart                 |restart_flow_G3.dat                |
|Paraview                           |flow_G3.vtu                        |
|Paraview surface                   |surface_flow_G3.vtu                |
+-----------------------------------------------------------------------+
+-----------------------------------------------------------------------------+
|  Inner_Iter|     Min CFL|     Max CFL|      rms[P]|  Cauchy[CD]|          CD|
+-----------------------------------------------------------------------------+
|        2810|  4.5458e+01|  4.5458e+01|   -8.562548|  3.7120e-05|    0.040502|
|        2820|  4.5458e+01|  4.5458e+01|   -8.565941|  3.6779e-05|    0.040470|
|        2830|  4.5458e+01|  4.5458e+01|   -8.569336|  3.6439e-05|    0.040437|
|        2840|  4.5458e+01|  4.5458e+01|   -8.572767|  3.6102e-05|    0.040405|
|        2850|  4.5458e+01|  4.5458e+01|   -8.576170|  3.5770e-05|    0.040373|
|        2860|  4.5458e+01|  4.5458e+01|   -8.579462|  3.5442e-05|    0.040341|
|        2870|  4.5458e+01|  4.5458e+01|   -8.582776|  3.5119e-05|    0.040310|
|        2880|  4.5458e+01|  4.5458e+01|   -8.586161|  3.4799e-05|    0.040279|
|        2890|  4.5458e+01|  4.5458e+01|   -8.589604|  3.4483e-05|    0.040248|
|        2900|  4.5458e+01|  4.5458e+01|   -8.592984|  3.4173e-05|    0.040217|
|        2910|  4.5458e+01|  4.5458e+01|   -8.596282|  3.3870e-05|    0.040187|
|        2920|  4.5458e+01|  4.5458e+01|   -8.599610|  3.3571e-05|    0.040157|
|        2930|  4.5458e+01|  4.5458e+01|   -8.603072|  3.3275e-05|    0.040127|
|        2940|  4.5458e+01|  4.5458e+01|   -8.606595|  3.2982e-05|    0.040098|
|        2950|  4.5458e+01|  4.5458e+01|   -8.610061|  3.2689e-05|    0.040068|
|        2960|  4.5458e+01|  4.5458e+01|   -8.613448|  3.2393e-05|    0.040039|
|        2970|  4.5458e+01|  4.5458e+01|   -8.616832|  3.2098e-05|    0.040010|
|        2980|  4.5458e+01|  4.5458e+01|   -8.620350|  3.1802e-05|    0.039982|
|        2990|  4.5458e+01|  4.5458e+01|   -8.623867|  3.1505e-05|    0.039954|
|        3000|  4.5458e+01|  4.5458e+01|   -8.627307|  3.1209e-05|    0.039926|
+-----------------------------------------------------------------------+
|        File Writing Summary       |              Filename             |
+-----------------------------------------------------------------------+
|SU2 binary restart                 |restart_flow_G3.dat                |
|Paraview                           |flow_G3.vtu                        |
|Paraview surface                   |surface_flow_G3.vtu                |
+-----------------------------------------------------------------------+
+-----------------------------------------------------------------------------+
|  Inner_Iter|     Min CFL|     Max CFL|      rms[P]|  Cauchy[CD]|          CD|
+-----------------------------------------------------------------------------+
|        3010|  4.5458e+01|  4.5458e+01|   -8.630738|  3.0915e-05|    0.039899|
|        3020|  4.5458e+01|  4.5458e+01|   -8.634169|  3.0624e-05|    0.039871|
|        3030|  4.5458e+01|  4.5458e+01|   -8.637661|  3.0337e-05|    0.039844|
|        3040|  4.5458e+01|  4.5458e+01|   -8.641177|  3.0053e-05|    0.039818|
|        3050|  4.5458e+01|  4.5458e+01|   -8.644559|  2.9773e-05|    0.039791|
|        3060|  4.5458e+01|  4.5458e+01|   -8.647864|  2.9499e-05|    0.039765|
|        3070|  4.5458e+01|  4.5458e+01|   -8.651139|  2.9230e-05|    0.039739|
|        3080|  4.5458e+01|  4.5458e+01|   -8.654532|  2.8963e-05|    0.039713|
|        3090|  4.5458e+01|  4.5458e+01|   -8.657945|  2.8699e-05|    0.039687|
|        3100|  4.5458e+01|  4.5458e+01|   -8.661448|  2.8437e-05|    0.039662|
|        3110|  4.5458e+01|  4.5458e+01|   -8.664963|  2.8177e-05|    0.039637|
|        3120|  4.5458e+01|  4.5458e+01|   -8.668423|  2.7919e-05|    0.039612|
|        3130|  4.5458e+01|  4.5458e+01|   -8.671970|  2.7663e-05|    0.039587|
|        3140|  4.5458e+01|  4.5458e+01|   -8.675555|  2.7407e-05|    0.039563|
|        3150|  4.5458e+01|  4.5458e+01|   -8.679093|  2.7151e-05|    0.039539|
|        3160|  4.5458e+01|  4.5458e+01|   -8.682797|  2.6896e-05|    0.039515|
|        3170|  4.5458e+01|  4.5458e+01|   -8.686387|  2.6643e-05|    0.039491|
|        3180|  4.5458e+01|  4.5458e+01|   -8.689995|  2.6392e-05|    0.039467|
|        3190|  4.5458e+01|  4.5458e+01|   -8.693630|  2.6143e-05|    0.039444|
|        3200|  4.5458e+01|  4.5458e+01|   -8.697273|  2.5896e-05|    0.039421|
+-----------------------------------------------------------------------+
|        File Writing Summary       |              Filename             |
+-----------------------------------------------------------------------+
|SU2 binary restart                 |restart_flow_G3.dat                |
|Paraview                           |flow_G3.vtu                        |
|Paraview surface                   |surface_flow_G3.vtu                |
+-----------------------------------------------------------------------+
+-----------------------------------------------------------------------------+
|  Inner_Iter|     Min CFL|     Max CFL|      rms[P]|  Cauchy[CD]|          CD|
+-----------------------------------------------------------------------------+
|        3210|  4.5458e+01|  4.5458e+01|   -8.700873|  2.5653e-05|    0.039398|
|        3220|  4.5458e+01|  4.5458e+01|   -8.704443|  2.5414e-05|    0.039375|
|        3230|  4.5458e+01|  4.5458e+01|   -8.708088|  2.5180e-05|    0.039352|
|        3240|  4.5458e+01|  4.5458e+01|   -8.711640|  2.4950e-05|    0.039330|
|        3250|  4.5458e+01|  4.5458e+01|   -8.715060|  2.4723e-05|    0.039308|
|        3260|  4.5458e+01|  4.5458e+01|   -8.718520|  2.4499e-05|    0.039286|
|        3270|  4.5458e+01|  4.5458e+01|   -8.722048|  2.4277e-05|    0.039264|
|        3280|  4.5458e+01|  4.5458e+01|   -8.725605|  2.4056e-05|    0.039243|
|        3290|  4.5458e+01|  4.5458e+01|   -8.729129|  2.3836e-05|    0.039222|
|        3300|  4.5458e+01|  4.5458e+01|   -8.732661|  2.3619e-05|    0.039201|
|        3310|  4.5458e+01|  4.5458e+01|   -8.736296|  2.3403e-05|    0.039180|
|        3320|  4.5458e+01|  4.5458e+01|   -8.740071|  2.3187e-05|    0.039159|
|        3330|  4.5458e+01|  4.5458e+01|   -8.743810|  2.2971e-05|    0.039139|
|        3340|  4.5458e+01|  4.5458e+01|   -8.747646|  2.2755e-05|    0.039119|
|        3350|  4.5458e+01|  4.5458e+01|   -8.751452|  2.2539e-05|    0.039099|
|        3360|  4.5458e+01|  4.5458e+01|   -8.755266|  2.2324e-05|    0.039079|
|        3370|  4.5458e+01|  4.5458e+01|   -8.759023|  2.2110e-05|    0.039059|
|        3380|  4.5458e+01|  4.5458e+01|   -8.762826|  2.1897e-05|    0.039040|
|        3390|  4.5458e+01|  4.5458e+01|   -8.766599|  2.1686e-05|    0.039021|
|        3400|  4.5458e+01|  4.5458e+01|   -8.770258|  2.1476e-05|    0.039002|
+-----------------------------------------------------------------------+
|        File Writing Summary       |              Filename             |
+-----------------------------------------------------------------------+
|SU2 binary restart                 |restart_flow_G3.dat                |
|Paraview                           |flow_G3.vtu                        |
|Paraview surface                   |surface_flow_G3.vtu                |
+-----------------------------------------------------------------------+
+-----------------------------------------------------------------------------+
|  Inner_Iter|     Min CFL|     Max CFL|      rms[P]|  Cauchy[CD]|          CD|
+-----------------------------------------------------------------------------+
|        3410|  4.5458e+01|  4.5458e+01|   -8.773901|  2.1268e-05|    0.038983|
|        3420|  4.5458e+01|  4.5458e+01|   -8.777539|  2.1061e-05|    0.038964|
|        3430|  4.5458e+01|  4.5458e+01|   -8.781262|  2.0855e-05|    0.038946|
|        3440|  4.5458e+01|  4.5458e+01|   -8.784981|  2.0650e-05|    0.038928|
|        3450|  4.5458e+01|  4.5458e+01|   -8.788585|  2.0448e-05|    0.038910|
|        3460|  4.5458e+01|  4.5458e+01|   -8.792098|  2.0249e-05|    0.038892|
|        3470|  4.5458e+01|  4.5458e+01|   -8.795675|  2.0052e-05|    0.038874|
|        3480|  4.5458e+01|  4.5458e+01|   -8.799251|  1.9858e-05|    0.038856|
|        3490|  4.5458e+01|  4.5458e+01|   -8.802835|  1.9666e-05|    0.038838|
|        3500|  4.5458e+01|  4.5458e+01|   -8.806396|  1.9479e-05|    0.038821|
|        3510|  4.5458e+01|  4.5458e+01|   -8.809949|  1.9295e-05|    0.038804|
|        3520|  4.5458e+01|  4.5458e+01|   -8.813509|  1.9115e-05|    0.038787|
|        3530|  4.5458e+01|  4.5458e+01|   -8.817104|  1.8938e-05|    0.038769|
|        3540|  4.5458e+01|  4.5458e+01|   -8.820734|  1.8763e-05|    0.038753|
|        3550|  4.5458e+01|  4.5458e+01|   -8.824445|  1.8592e-05|    0.038736|
|        3560|  4.5458e+01|  4.5458e+01|   -8.828136|  1.8423e-05|    0.038719|
|        3570|  4.5458e+01|  4.5458e+01|   -8.831877|  1.8256e-05|    0.038703|
|        3580|  4.5458e+01|  4.5458e+01|   -8.835671|  1.8090e-05|    0.038686|
|        3590|  4.5458e+01|  4.5458e+01|   -8.839508|  1.7925e-05|    0.038670|
|        3600|  4.5458e+01|  4.5458e+01|   -8.843388|  1.7763e-05|    0.038654|
+-----------------------------------------------------------------------+
|        File Writing Summary       |              Filename             |
+-----------------------------------------------------------------------+
|SU2 binary restart                 |restart_flow_G3.dat                |
|Paraview                           |flow_G3.vtu                        |
|Paraview surface                   |surface_flow_G3.vtu                |
+-----------------------------------------------------------------------+
+-----------------------------------------------------------------------------+
|  Inner_Iter|     Min CFL|     Max CFL|      rms[P]|  Cauchy[CD]|          CD|
+-----------------------------------------------------------------------------+
|        3610|  4.5458e+01|  4.5458e+01|   -8.847276|  1.7602e-05|    0.038639|
|        3620|  4.5458e+01|  4.5458e+01|   -8.851200|  1.7443e-05|    0.038623|
|        3630|  4.5458e+01|  4.5458e+01|   -8.855170|  1.7283e-05|    0.038608|
|        3640|  4.5458e+01|  4.5458e+01|   -8.859233|  1.7124e-05|    0.038593|
|        3650|  4.5458e+01|  4.5458e+01|   -8.863288|  1.6965e-05|    0.038578|
|        3660|  4.5458e+01|  4.5458e+01|   -8.867369|  1.6807e-05|    0.038563|
|        3670|  4.5458e+01|  4.5458e+01|   -8.871448|  1.6649e-05|    0.038548|
|        3680|  4.5458e+01|  4.5458e+01|   -8.875563|  1.6493e-05|    0.038534|
|        3690|  4.5458e+01|  4.5458e+01|   -8.879651|  1.6337e-05|    0.038519|
|        3700|  4.5458e+01|  4.5458e+01|   -8.883670|  1.6182e-05|    0.038505|
|        3710|  4.5458e+01|  4.5458e+01|   -8.887642|  1.6028e-05|    0.038491|
|        3720|  4.5458e+01|  4.5458e+01|   -8.891618|  1.5874e-05|    0.038477|
|        3730|  9.4261e+00|  9.4261e+00|   -8.879751|  1.5589e-05|    0.038466|
|        3740|  4.8637e+00|  4.8637e+00|   -8.909439|  1.5197e-05|    0.038459|
|        3750|  3.0115e+01|  3.0115e+01|   -8.928743|  1.4653e-05|    0.038455|
|        3760|  1.5538e+01|  1.5538e+01|   -8.930357|  1.4210e-05|    0.038448|
|        3770|  4.6398e+01|  4.6398e+01|   -8.908709|  1.3918e-05|    0.038439|
|        3780|  4.6398e+01|  4.6398e+01|   -8.909792|  1.3781e-05|    0.038425|
|        3790|  4.6398e+01|  4.6398e+01|   -8.910786|  1.3658e-05|    0.038411|
|        3800|  4.6398e+01|  4.6398e+01|   -8.913233|  1.3530e-05|    0.038398|
+-----------------------------------------------------------------------+
|        File Writing Summary       |              Filename             |
+-----------------------------------------------------------------------+
|SU2 binary restart                 |restart_flow_G3.dat                |
|Paraview                           |flow_G3.vtu                        |
|Paraview surface                   |surface_flow_G3.vtu                |
+-----------------------------------------------------------------------+
+-----------------------------------------------------------------------------+
|  Inner_Iter|     Min CFL|     Max CFL|      rms[P]|  Cauchy[CD]|          CD|
+-----------------------------------------------------------------------------+
|        3810|  4.6398e+01|  4.6398e+01|   -8.916551|  1.3392e-05|    0.038384|
|        3820|  4.6398e+01|  4.6398e+01|   -8.920019|  1.3264e-05|    0.038371|
|        3830|  4.6398e+01|  4.6398e+01|   -8.923620|  1.3144e-05|    0.038358|
|        3840|  4.6398e+01|  4.6398e+01|   -8.927355|  1.3024e-05|    0.038345|
|        3850|  4.6398e+01|  4.6398e+01|   -8.930938|  1.2903e-05|    0.038332|
|        3860|  4.6398e+01|  4.6398e+01|   -8.934452|  1.2787e-05|    0.038319|
|        3870|  4.6398e+01|  4.6398e+01|   -8.938060|  1.2673e-05|    0.038306|
|        3880|  4.6398e+01|  4.6398e+01|   -8.941638|  1.2561e-05|    0.038294|
|        3890|  4.6398e+01|  4.6398e+01|   -8.945450|  1.2453e-05|    0.038281|
|        3900|  4.6398e+01|  4.6398e+01|   -8.949353|  1.2347e-05|    0.038269|
|        3910|  4.6398e+01|  4.6398e+01|   -8.953002|  1.2242e-05|    0.038257|
|        3920|  4.6398e+01|  4.6398e+01|   -8.956703|  1.2139e-05|    0.038245|
|        3930|  4.6398e+01|  4.6398e+01|   -8.960831|  1.2039e-05|    0.038233|
|        3940|  4.6398e+01|  4.6398e+01|   -8.965160|  1.1940e-05|    0.038221|
|        3950|  4.6398e+01|  4.6398e+01|   -8.969322|  1.1840e-05|    0.038209|
|        3960|  4.6398e+01|  4.6398e+01|   -8.973464|  1.1741e-05|    0.038197|
|        3970|  4.6398e+01|  4.6398e+01|   -8.977786|  1.1644e-05|    0.038186|
|        3980|  4.6398e+01|  4.6398e+01|   -8.982203|  1.1678e-05|    0.038174|
|        3990|  4.6398e+01|  4.6398e+01|   -8.986589|  1.1819e-05|    0.038163|
|        4000|  4.6398e+01|  4.6398e+01|   -8.990956|  1.2113e-05|    0.038152|
+-----------------------------------------------------------------------+
|        File Writing Summary       |              Filename             |
+-----------------------------------------------------------------------+
|SU2 binary restart                 |restart_flow_G3.dat                |
|Paraview                           |flow_G3.vtu                        |
|Paraview surface                   |surface_flow_G3.vtu                |
+-----------------------------------------------------------------------+
+-----------------------------------------------------------------------------+
|  Inner_Iter|     Min CFL|     Max CFL|      rms[P]|  Cauchy[CD]|          CD|
+-----------------------------------------------------------------------------+
|        4010|  4.6398e+01|  4.6398e+01|   -8.995361|  1.2307e-05|    0.038141|
|        4020|  4.6398e+01|  4.6398e+01|   -8.999740|  1.2350e-05|    0.038130|
|        4030|  4.6398e+01|  4.6398e+01|   -9.004155|  1.2240e-05|    0.038119|
|        4040|  4.6398e+01|  4.6398e+01|   -9.008498|  1.2117e-05|    0.038108|
|        4050|  4.6398e+01|  4.6398e+01|   -9.012775|  1.1999e-05|    0.038098|
|        4060|  4.6398e+01|  4.6398e+01|   -9.017015|  1.1893e-05|    0.038087|
|        4070|  4.6398e+01|  4.6398e+01|   -9.021241|  1.1780e-05|    0.038077|
|        4080|  4.6398e+01|  4.6398e+01|   -9.025368|  1.1661e-05|    0.038066|
|        4090|  4.6398e+01|  4.6398e+01|   -9.029425|  1.1545e-05|    0.038056|
|        4100|  4.6398e+01|  4.6398e+01|   -9.033384|  1.1433e-05|    0.038046|
|        4110|  4.6398e+01|  4.6398e+01|   -9.037325|  1.1319e-05|    0.038036|
|        4120|  4.6398e+01|  4.6398e+01|   -9.041225|  1.1206e-05|    0.038026|
|        4130|  4.6398e+01|  4.6398e+01|   -9.045161|  1.1095e-05|    0.038016|
|        4140|  4.6398e+01|  4.6398e+01|   -9.049051|  1.0982e-05|    0.038007|
|        4150|  4.6398e+01|  4.6398e+01|   -9.052918|  1.0871e-05|    0.037997|
|        4160|  4.6398e+01|  4.6398e+01|   -9.056869|  1.0763e-05|    0.037988|
|        4170|  4.6398e+01|  4.6398e+01|   -9.060842|  1.0655e-05|    0.037978|
|        4180|  4.6398e+01|  4.6398e+01|   -9.064829|  1.0547e-05|    0.037969|
|        4190|  4.6398e+01|  4.6398e+01|   -9.068843|  1.0441e-05|    0.037960|
|        4200|  4.6398e+01|  4.6398e+01|   -9.072853|  1.0336e-05|    0.037951|
+-----------------------------------------------------------------------+
|        File Writing Summary       |              Filename             |
+-----------------------------------------------------------------------+
|SU2 binary restart                 |restart_flow_G3.dat                |
|Paraview                           |flow_G3.vtu                        |
|Paraview surface                   |surface_flow_G3.vtu                |
+-----------------------------------------------------------------------+
+-----------------------------------------------------------------------------+
|  Inner_Iter|     Min CFL|     Max CFL|      rms[P]|  Cauchy[CD]|          CD|
+-----------------------------------------------------------------------------+
|        4210|  4.6398e+01|  4.6398e+01|   -9.076875|  1.0233e-05|    0.037942|
|        4220|  4.6398e+01|  4.6398e+01|   -9.080943|  1.0130e-05|    0.037933|
|        4230|  4.6398e+01|  4.6398e+01|   -9.085050|  1.0028e-05|    0.037924|
|        4240|  4.6398e+01|  4.6398e+01|   -9.089217|  9.9276e-06|    0.037915|
|        4250|  4.6398e+01|  4.6398e+01|   -9.093396|  9.8277e-06|    0.037906|
|        4260|  4.6398e+01|  4.6398e+01|   -9.097594|  9.7282e-06|    0.037898|
|        4270|  4.6398e+01|  4.6398e+01|   -9.101774|  9.6291e-06|    0.037889|
|        4280|  4.6398e+01|  4.6398e+01|   -9.106014|  9.5308e-06|    0.037881|
|        4290|  4.6398e+01|  4.6398e+01|   -9.110296|  9.4337e-06|    0.037872|
|        4300|  4.6398e+01|  4.6398e+01|   -9.114570|  9.3379e-06|    0.037864|
|        4310|  4.6398e+01|  4.6398e+01|   -9.118785|  9.2434e-06|    0.037856|
|        4320|  4.6398e+01|  4.6398e+01|   -9.122939|  9.1499e-06|    0.037848|
|        4330|  4.6398e+01|  4.6398e+01|   -9.127118|  9.0576e-06|    0.037840|
|        4340|  4.6398e+01|  4.6398e+01|   -9.131335|  8.9665e-06|    0.037832|
|        4350|  4.6398e+01|  4.6398e+01|   -9.135503|  8.8765e-06|    0.037824|
|        4360|  4.6398e+01|  4.6398e+01|   -9.139613|  8.7872e-06|    0.037816|
|        4370|  4.6398e+01|  4.6398e+01|   -9.143696|  8.6989e-06|    0.037809|
|        4380|  4.6398e+01|  4.6398e+01|   -9.147797|  8.6116e-06|    0.037801|
|        4390|  4.6398e+01|  4.6398e+01|   -9.151904|  8.5253e-06|    0.037794|
|        4400|  4.6398e+01|  4.6398e+01|   -9.156043|  8.4400e-06|    0.037786|
+-----------------------------------------------------------------------+
|        File Writing Summary       |              Filename             |
+-----------------------------------------------------------------------+
|SU2 binary restart                 |restart_flow_G3.dat                |
|Paraview                           |flow_G3.vtu                        |
|Paraview surface                   |surface_flow_G3.vtu                |
+-----------------------------------------------------------------------+
+-----------------------------------------------------------------------------+
|  Inner_Iter|     Min CFL|     Max CFL|      rms[P]|  Cauchy[CD]|          CD|
+-----------------------------------------------------------------------------+
|        4410|  4.6398e+01|  4.6398e+01|   -9.160229|  8.3556e-06|    0.037779|
|        4420|  4.6398e+01|  4.6398e+01|   -9.164422|  8.2717e-06|    0.037771|
|        4430|  4.6398e+01|  4.6398e+01|   -9.168601|  8.1885e-06|    0.037764|
|        4440|  4.6398e+01|  4.6398e+01|   -9.172753|  8.1064e-06|    0.037757|
|        4450|  4.6398e+01|  4.6398e+01|   -9.176886|  8.0254e-06|    0.037750|
|        4460|  4.6398e+01|  4.6398e+01|   -9.181018|  7.9453e-06|    0.037743|
|        4470|  4.6398e+01|  4.6398e+01|   -9.185157|  7.8661e-06|    0.037736|
|        4480|  4.6398e+01|  4.6398e+01|   -9.189285|  7.7881e-06|    0.037729|
|        4490|  4.6398e+01|  4.6398e+01|   -9.193390|  7.7111e-06|    0.037722|
|        4500|  4.6398e+01|  4.6398e+01|   -9.197520|  7.6352e-06|    0.037715|
|        4510|  4.6398e+01|  4.6398e+01|   -9.201653|  7.5607e-06|    0.037709|
|        4520|  4.6398e+01|  4.6398e+01|   -9.205816|  7.4878e-06|    0.037702|
|        4530|  4.6398e+01|  4.6398e+01|   -9.210113|  7.4161e-06|    0.037695|
|        4540|  4.6398e+01|  4.6398e+01|   -9.214374|  7.3454e-06|    0.037689|
|        4550|  4.6398e+01|  4.6398e+01|   -9.218662|  7.2755e-06|    0.037682|
|        4560|  4.6398e+01|  4.6398e+01|   -9.223023|  7.2063e-06|    0.037676|
|        4570|  4.6398e+01|  4.6398e+01|   -9.227382|  7.1379e-06|    0.037669|
|        4580|  4.6398e+01|  4.6398e+01|   -9.231757|  7.0703e-06|    0.037663|
|        4590|  4.6398e+01|  4.6398e+01|   -9.236161|  7.0033e-06|    0.037657|
|        4600|  4.6398e+01|  4.6398e+01|   -9.240572|  6.9369e-06|    0.037651|
+-----------------------------------------------------------------------+
|        File Writing Summary       |              Filename             |
+-----------------------------------------------------------------------+
|SU2 binary restart                 |restart_flow_G3.dat                |
|Paraview                           |flow_G3.vtu                        |
|Paraview surface                   |surface_flow_G3.vtu                |
+-----------------------------------------------------------------------+
+-----------------------------------------------------------------------------+
|  Inner_Iter|     Min CFL|     Max CFL|      rms[P]|  Cauchy[CD]|          CD|
+-----------------------------------------------------------------------------+
|        4610|  4.6398e+01|  4.6398e+01|   -9.244993|  6.8714e-06|    0.037645|
|        4620|  4.6398e+01|  4.6398e+01|   -9.249417|  6.8066e-06|    0.037639|
|        4630|  4.6398e+01|  4.6398e+01|   -9.253831|  6.7427e-06|    0.037633|
|        4640|  4.6398e+01|  4.6398e+01|   -9.258233|  6.6792e-06|    0.037627|
|        4650|  4.6398e+01|  4.6398e+01|   -9.262635|  6.6161e-06|    0.037621|
|        4660|  4.6398e+01|  4.6398e+01|   -9.267066|  6.5535e-06|    0.037615|
|        4670|  4.6398e+01|  4.6398e+01|   -9.271521|  6.4914e-06|    0.037609|
|        4680|  4.6398e+01|  4.6398e+01|   -9.275947|  6.4299e-06|    0.037603|
|        4690|  4.6398e+01|  4.6398e+01|   -9.280355|  6.3684e-06|    0.037598|
|        4700|  4.6398e+01|  4.6398e+01|   -9.284771|  6.3070e-06|    0.037592|
|        4710|  4.6398e+01|  4.6398e+01|   -9.289172|  6.2458e-06|    0.037587|
|        4720|  4.6398e+01|  4.6398e+01|   -9.293554|  6.1848e-06|    0.037581|
|        4730|  4.6398e+01|  4.6398e+01|   -9.297940|  6.1239e-06|    0.037576|
|        4740|  4.6398e+01|  4.6398e+01|   -9.302283|  6.0634e-06|    0.037571|
|        4750|  4.6398e+01|  4.6398e+01|   -9.306616|  6.0030e-06|    0.037565|
|        4760|  4.6398e+01|  4.6398e+01|   -9.310934|  5.9429e-06|    0.037560|
|        4770|  4.6398e+01|  4.6398e+01|   -9.315230|  5.8830e-06|    0.037555|
|        4780|  4.6398e+01|  4.6398e+01|   -9.319518|  5.8235e-06|    0.037550|
|        4790|  4.6398e+01|  4.6398e+01|   -9.323809|  5.7641e-06|    0.037545|
|        4800|  4.6398e+01|  4.6398e+01|   -9.328094|  5.7049e-06|    0.037540|
+-----------------------------------------------------------------------+
|        File Writing Summary       |              Filename             |
+-----------------------------------------------------------------------+
|SU2 binary restart                 |restart_flow_G3.dat                |
|Paraview                           |flow_G3.vtu                        |
|Paraview surface                   |surface_flow_G3.vtu                |
+-----------------------------------------------------------------------+
+-----------------------------------------------------------------------------+
|  Inner_Iter|     Min CFL|     Max CFL|      rms[P]|  Cauchy[CD]|          CD|
+-----------------------------------------------------------------------------+
|        4810|  4.6398e+01|  4.6398e+01|   -9.332382|  5.6458e-06|    0.037535|
|        4820|  4.6398e+01|  4.6398e+01|   -9.336678|  5.5869e-06|    0.037530|
|        4830|  4.6398e+01|  4.6398e+01|   -9.340891|  5.5281e-06|    0.037525|
|        4840|  4.6398e+01|  4.6398e+01|   -9.345173|  5.4695e-06|    0.037520|
|        4850|  4.6398e+01|  4.6398e+01|   -9.349438|  5.4113e-06|    0.037515|
|        4860|  4.6398e+01|  4.6398e+01|   -9.353693|  5.3534e-06|    0.037511|
|        4870|  4.6398e+01|  4.6398e+01|   -9.357949|  5.2959e-06|    0.037506|
|        4880|  4.6398e+01|  4.6398e+01|   -9.362195|  5.2387e-06|    0.037502|
|        4890|  4.6398e+01|  4.6398e+01|   -9.366426|  5.1819e-06|    0.037497|
|        4900|  4.6398e+01|  4.6398e+01|   -9.370643|  5.1257e-06|    0.037493|
|        4910|  4.6398e+01|  4.6398e+01|   -9.374844|  5.0700e-06|    0.037488|
|        4920|  4.6398e+01|  4.6398e+01|   -9.379026|  5.0148e-06|    0.037484|
|        4930|  4.6398e+01|  4.6398e+01|   -9.383189|  4.9602e-06|    0.037479|
|        4940|  4.6398e+01|  4.6398e+01|   -9.387335|  4.9062e-06|    0.037475|
|        4950|  4.6398e+01|  4.6398e+01|   -9.391463|  4.8527e-06|    0.037471|
|        4960|  4.6398e+01|  4.6398e+01|   -9.395569|  4.7998e-06|    0.037467|
|        4970|  4.6398e+01|  4.6398e+01|   -9.399649|  4.7475e-06|    0.037463|
|        4980|  4.6398e+01|  4.6398e+01|   -9.403724|  4.6959e-06|    0.037458|
|        4990|  4.6398e+01|  4.6398e+01|   -9.407806|  4.6450e-06|    0.037454|
|        5000|  4.6398e+01|  4.6398e+01|   -9.411843|  4.5947e-06|    0.037450|
+-----------------------------------------------------------------------+
|        File Writing Summary       |              Filename             |
+-----------------------------------------------------------------------+
|SU2 binary restart                 |restart_flow_G3.dat                |
|Paraview                           |flow_G3.vtu                        |
|Paraview surface                   |surface_flow_G3.vtu                |
+-----------------------------------------------------------------------+
+-----------------------------------------------------------------------------+
|  Inner_Iter|     Min CFL|     Max CFL|      rms[P]|  Cauchy[CD]|          CD|
+-----------------------------------------------------------------------------+
|        5010|  4.6398e+01|  4.6398e+01|   -9.415979|  4.5451e-06|    0.037446|
|        5020|  4.6398e+01|  4.6398e+01|   -9.420123|  4.4962e-06|    0.037442|
|        5030|  4.6398e+01|  4.6398e+01|   -9.424267|  4.4482e-06|    0.037438|
|        5040|  4.6398e+01|  4.6398e+01|   -9.428391|  4.4011e-06|    0.037435|
|        5050|  4.6398e+01|  4.6398e+01|   -9.432517|  4.3549e-06|    0.037431|
|        5060|  4.6398e+01|  4.6398e+01|   -9.436652|  4.3096e-06|    0.037427|
|        5070|  4.6398e+01|  4.6398e+01|   -9.440823|  4.2652e-06|    0.037423|
|        5080|  4.6398e+01|  4.6398e+01|   -9.445020|  4.2215e-06|    0.037419|
|        5090|  4.6398e+01|  4.6398e+01|   -9.449226|  4.1787e-06|    0.037416|
|        5100|  4.6398e+01|  4.6398e+01|   -9.453467|  4.1366e-06|    0.037412|
|        5110|  4.6398e+01|  4.6398e+01|   -9.457747|  4.0952e-06|    0.037408|
|        5120|  4.6398e+01|  4.6398e+01|   -9.462049|  4.0544e-06|    0.037405|
|        5130|  4.6398e+01|  4.6398e+01|   -9.466360|  4.0143e-06|    0.037401|
|        5140|  4.6398e+01|  4.6398e+01|   -9.470684|  3.9748e-06|    0.037398|
|        5150|  4.6398e+01|  4.6398e+01|   -9.475023|  3.9359e-06|    0.037394|
|        5160|  4.6398e+01|  4.6398e+01|   -9.479354|  3.8975e-06|    0.037391|
|        5170|  4.6398e+01|  4.6398e+01|   -9.483700|  3.8596e-06|    0.037387|
|        5180|  4.6398e+01|  4.6398e+01|   -9.488102|  3.8222e-06|    0.037384|
|        5190|  4.6398e+01|  4.6398e+01|   -9.492558|  3.7852e-06|    0.037381|
|        5200|  4.6398e+01|  4.6398e+01|   -9.497004|  3.7485e-06|    0.037377|
+-----------------------------------------------------------------------+
|        File Writing Summary       |              Filename             |
+-----------------------------------------------------------------------+
|SU2 binary restart                 |restart_flow_G3.dat                |
|Paraview                           |flow_G3.vtu                        |
|Paraview surface                   |surface_flow_G3.vtu                |
+-----------------------------------------------------------------------+
+-----------------------------------------------------------------------------+
|  Inner_Iter|     Min CFL|     Max CFL|      rms[P]|  Cauchy[CD]|          CD|
+-----------------------------------------------------------------------------+
|        5210|  4.6398e+01|  4.6398e+01|   -9.501476|  3.7120e-06|    0.037374|
|        5220|  4.6398e+01|  4.6398e+01|   -9.505921|  3.6759e-06|    0.037371|
|        5230|  4.6398e+01|  4.6398e+01|   -9.510337|  3.6400e-06|    0.037367|
|        5240|  4.6398e+01|  4.6398e+01|   -9.514736|  3.6044e-06|    0.037364|
|        5250|  4.6398e+01|  4.6398e+01|   -9.519129|  3.5691e-06|    0.037361|
|        5260|  4.6398e+01|  4.6398e+01|   -9.523525|  3.5340e-06|    0.037358|
|        5270|  4.6398e+01|  4.6398e+01|   -9.527929|  3.4994e-06|    0.037355|
|        5280|  4.6398e+01|  4.6398e+01|   -9.532328|  3.4650e-06|    0.037352|
|        5290|  4.6398e+01|  4.6398e+01|   -9.536698|  3.4308e-06|    0.037349|
|        5300|  4.6398e+01|  4.6398e+01|   -9.541061|  3.3969e-06|    0.037346|
|        5310|  4.6398e+01|  4.6398e+01|   -9.545390|  3.3633e-06|    0.037343|
|        5320|  4.6398e+01|  4.6398e+01|   -9.547299|  3.3299e-06|    0.037340|
|        5330|  4.6398e+01|  4.6398e+01|   -9.550962|  3.2968e-06|    0.037337|
|        5340|  4.6398e+01|  4.6398e+01|   -9.556121|  3.2639e-06|    0.037334|
|        5350|  4.6398e+01|  4.6398e+01|   -9.561161|  3.2313e-06|    0.037331|
|        5360|  4.6398e+01|  4.6398e+01|   -9.565278|  3.1991e-06|    0.037328|
|        5370|  4.6398e+01|  4.6398e+01|   -9.569353|  3.1672e-06|    0.037326|
|        5380|  4.6398e+01|  4.6398e+01|   -9.573885|  3.1357e-06|    0.037323|
|        5390|  4.6398e+01|  4.6398e+01|   -9.578412|  3.1045e-06|    0.037320|
|        5400|  4.6398e+01|  4.6398e+01|   -9.582805|  3.0737e-06|    0.037317|
+-----------------------------------------------------------------------+
|        File Writing Summary       |              Filename             |
+-----------------------------------------------------------------------+
|SU2 binary restart                 |restart_flow_G3.dat                |
|Paraview                           |flow_G3.vtu                        |
|Paraview surface                   |surface_flow_G3.vtu                |
+-----------------------------------------------------------------------+
+-----------------------------------------------------------------------------+
|  Inner_Iter|     Min CFL|     Max CFL|      rms[P]|  Cauchy[CD]|          CD|
+-----------------------------------------------------------------------------+
|        5410|  4.6398e+01|  4.6398e+01|   -9.587252|  3.0432e-06|    0.037315|
|        5420|  4.6398e+01|  4.6398e+01|   -9.591841|  3.0130e-06|    0.037312|
|        5430|  4.6398e+01|  4.6398e+01|   -9.596396|  2.9832e-06|    0.037309|
|        5440|  4.6398e+01|  4.6398e+01|   -9.600824|  2.9537e-06|    0.037307|
|        5450|  4.6398e+01|  4.6398e+01|   -9.605217|  2.9246e-06|    0.037304|
|        5460|  4.6398e+01|  4.6398e+01|   -9.609665|  2.8960e-06|    0.037302|
|        5470|  4.6398e+01|  4.6398e+01|   -9.614144|  2.8677e-06|    0.037299|
|        5480|  4.6398e+01|  4.6398e+01|   -9.618586|  2.8396e-06|    0.037296|
|        5490|  4.6398e+01|  4.6398e+01|   -9.623020|  2.8119e-06|    0.037294|
|        5500|  4.6398e+01|  4.6398e+01|   -9.627496|  2.7845e-06|    0.037292|
|        5510|  4.6398e+01|  4.6398e+01|   -9.631994|  2.7574e-06|    0.037289|
|        5520|  4.6398e+01|  4.6398e+01|   -9.636474|  2.7305e-06|    0.037287|
|        5530|  4.6398e+01|  4.6398e+01|   -9.640953|  2.7038e-06|    0.037284|
|        5540|  4.6398e+01|  4.6398e+01|   -9.645419|  2.6775e-06|    0.037282|
|        5550|  4.6398e+01|  4.6398e+01|   -9.649909|  2.6513e-06|    0.037280|
|        5560|  4.6398e+01|  4.6398e+01|   -9.654391|  2.6253e-06|    0.037277|
|        5570|  4.6398e+01|  4.6398e+01|   -9.658866|  2.5996e-06|    0.037275|
|        5580|  4.6398e+01|  4.6398e+01|   -9.663341|  2.5741e-06|    0.037273|
|        5590|  4.6398e+01|  4.6398e+01|   -9.667855|  2.5488e-06|    0.037270|
|        5600|  4.6398e+01|  4.6398e+01|   -9.672349|  2.5237e-06|    0.037268|
+-----------------------------------------------------------------------+
|        File Writing Summary       |              Filename             |
+-----------------------------------------------------------------------+
|SU2 binary restart                 |restart_flow_G3.dat                |
|Paraview                           |flow_G3.vtu                        |
|Paraview surface                   |surface_flow_G3.vtu                |
+-----------------------------------------------------------------------+
+-----------------------------------------------------------------------------+
|  Inner_Iter|     Min CFL|     Max CFL|      rms[P]|  Cauchy[CD]|          CD|
+-----------------------------------------------------------------------------+
|        5610|  4.6398e+01|  4.6398e+01|   -9.676855|  2.4987e-06|    0.037266|
|        5620|  4.6398e+01|  4.6398e+01|   -9.681372|  2.4739e-06|    0.037264|
|        5630|  4.6398e+01|  4.6398e+01|   -9.685880|  2.4493e-06|    0.037262|
|        5640|  4.6398e+01|  4.6398e+01|   -9.690368|  2.4247e-06|    0.037259|
|        5650|  4.6398e+01|  4.6398e+01|   -9.694836|  2.4003e-06|    0.037257|
|        5660|  4.6398e+01|  4.6398e+01|   -9.699285|  2.3762e-06|    0.037255|
|        5670|  4.6398e+01|  4.6398e+01|   -9.703714|  2.3522e-06|    0.037253|
|        5680|  4.6398e+01|  4.6398e+01|   -9.708126|  2.3283e-06|    0.037251|
|        5690|  4.6398e+01|  4.6398e+01|   -9.712548|  2.3047e-06|    0.037249|
|        5700|  4.6398e+01|  4.6398e+01|   -9.716953|  2.2812e-06|    0.037247|
|        5710|  4.6398e+01|  4.6398e+01|   -9.721355|  2.2580e-06|    0.037245|
|        5720|  4.6398e+01|  4.6398e+01|   -9.725751|  2.2349e-06|    0.037243|
|        5730|  4.6398e+01|  4.6398e+01|   -9.730149|  2.2121e-06|    0.037241|
|        5740|  4.6398e+01|  4.6398e+01|   -9.734553|  2.1896e-06|    0.037239|
|        5750|  4.6398e+01|  4.6398e+01|   -9.738964|  2.1673e-06|    0.037237|
|        5760|  4.6398e+01|  4.6398e+01|   -9.743385|  2.1451e-06|    0.037235|
|        5770|  4.6398e+01|  4.6398e+01|   -9.747821|  2.1233e-06|    0.037234|
|        5780|  4.6398e+01|  4.6398e+01|   -9.752265|  2.1016e-06|    0.037232|
|        5790|  4.6398e+01|  4.6398e+01|   -9.756720|  2.0802e-06|    0.037230|
|        5800|  4.6398e+01|  4.6398e+01|   -9.761155|  2.0589e-06|    0.037228|
+-----------------------------------------------------------------------+
|        File Writing Summary       |              Filename             |
+-----------------------------------------------------------------------+
|SU2 binary restart                 |restart_flow_G3.dat                |
|Paraview                           |flow_G3.vtu                        |
|Paraview surface                   |surface_flow_G3.vtu                |
+-----------------------------------------------------------------------+
+-----------------------------------------------------------------------------+
|  Inner_Iter|     Min CFL|     Max CFL|      rms[P]|  Cauchy[CD]|          CD|
+-----------------------------------------------------------------------------+
|        5810|  4.6398e+01|  4.6398e+01|   -9.765611|  2.0379e-06|    0.037226|
|        5820|  4.6398e+01|  4.6398e+01|   -9.770097|  2.0171e-06|    0.037224|
|        5830|  4.6398e+01|  4.6398e+01|   -9.774582|  1.9965e-06|    0.037223|
|        5840|  4.6398e+01|  4.6398e+01|   -9.779051|  1.9761e-06|    0.037221|
|        5850|  4.6398e+01|  4.6398e+01|   -9.783516|  1.9559e-06|    0.037219|
|        5860|  4.6398e+01|  4.6398e+01|   -9.787990|  1.9359e-06|    0.037218|
|        5870|  4.6398e+01|  4.6398e+01|   -9.792462|  1.9162e-06|    0.037216|
|        5880|  4.6398e+01|  4.6398e+01|   -9.796926|  1.8966e-06|    0.037214|
|        5890|  4.6398e+01|  4.6398e+01|   -9.801386|  1.8773e-06|    0.037213|
|        5900|  4.6398e+01|  4.6398e+01|   -9.805852|  1.8581e-06|    0.037211|
|        5910|  4.6398e+01|  4.6398e+01|   -9.810288|  1.8391e-06|    0.037209|
|        5920|  4.6398e+01|  4.6398e+01|   -9.814760|  1.8203e-06|    0.037208|
|        5930|  4.6398e+01|  4.6398e+01|   -9.819223|  1.8017e-06|    0.037206|
|        5940|  4.6398e+01|  4.6398e+01|   -9.823680|  1.7832e-06|    0.037205|
|        5950|  4.6398e+01|  4.6398e+01|   -9.828132|  1.7649e-06|    0.037203|
|        5960|  4.6398e+01|  4.6398e+01|   -9.832575|  1.7468e-06|    0.037201|
|        5970|  4.6398e+01|  4.6398e+01|   -9.837007|  1.7288e-06|    0.037200|
|        5980|  4.6398e+01|  4.6398e+01|   -9.841434|  1.7110e-06|    0.037198|
|        5990|  4.6398e+01|  4.6398e+01|   -9.845860|  1.6934e-06|    0.037197|
|        6000|  4.6398e+01|  4.6398e+01|   -9.850285|  1.6759e-06|    0.037195|
+-----------------------------------------------------------------------+
|        File Writing Summary       |              Filename             |
+-----------------------------------------------------------------------+
|SU2 binary restart                 |restart_flow_G3.dat                |
|Paraview                           |flow_G3.vtu                        |
|Paraview surface                   |surface_flow_G3.vtu                |
+-----------------------------------------------------------------------+
+-----------------------------------------------------------------------------+
|  Inner_Iter|     Min CFL|     Max CFL|      rms[P]|  Cauchy[CD]|          CD|
+-----------------------------------------------------------------------------+
|        6010|  4.6398e+01|  4.6398e+01|   -9.854709|  1.6586e-06|    0.037194|
|        6020|  4.6398e+01|  4.6398e+01|   -9.859129|  1.6414e-06|    0.037193|
|        6030|  4.6398e+01|  4.6398e+01|   -9.863551|  1.6244e-06|    0.037191|
|        6040|  4.6398e+01|  4.6398e+01|   -9.867976|  1.6076e-06|    0.037190|
|        6050|  4.6398e+01|  4.6398e+01|   -9.872402|  1.5910e-06|    0.037188|
|        6060|  4.6398e+01|  4.6398e+01|   -9.876825|  1.5745e-06|    0.037187|
|        6070|  4.6398e+01|  4.6398e+01|   -9.881246|  1.5582e-06|    0.037186|
|        6080|  4.6398e+01|  4.6398e+01|   -9.885668|  1.5421e-06|    0.037184|
|        6090|  4.6398e+01|  4.6398e+01|   -9.890088|  1.5261e-06|    0.037183|
|        6100|  4.6398e+01|  4.6398e+01|   -9.894507|  1.5103e-06|    0.037182|
|        6110|  4.6398e+01|  4.6398e+01|   -9.898930|  1.4947e-06|    0.037180|
|        6120|  4.6398e+01|  4.6398e+01|   -9.903356|  1.4792e-06|    0.037179|
|        6130|  4.6398e+01|  4.6398e+01|   -9.907785|  1.4638e-06|    0.037178|
|        6140|  4.6398e+01|  4.6398e+01|   -9.912214|  1.4486e-06|    0.037176|
|        6150|  4.6398e+01|  4.6398e+01|   -9.916646|  1.4336e-06|    0.037175|
|        6160|  4.6398e+01|  4.6398e+01|   -9.921060|  1.4187e-06|    0.037174|
|        6170|  4.6398e+01|  4.6398e+01|   -9.925468|  1.4040e-06|    0.037173|
|        6180|  4.6398e+01|  4.6398e+01|   -9.929879|  1.3895e-06|    0.037171|
|        6190|  4.6398e+01|  4.6398e+01|   -9.934295|  1.3752e-06|    0.037170|
|        6200|  4.6398e+01|  4.6398e+01|   -9.938713|  1.3610e-06|    0.037169|
+-----------------------------------------------------------------------+
|        File Writing Summary       |              Filename             |
+-----------------------------------------------------------------------+
|SU2 binary restart                 |restart_flow_G3.dat                |
|Paraview                           |flow_G3.vtu                        |
|Paraview surface                   |surface_flow_G3.vtu                |
+-----------------------------------------------------------------------+
+-----------------------------------------------------------------------------+
|  Inner_Iter|     Min CFL|     Max CFL|      rms[P]|  Cauchy[CD]|          CD|
+-----------------------------------------------------------------------------+
|        6210|  4.6398e+01|  4.6398e+01|   -9.943133|  1.3469e-06|    0.037168|
|        6220|  4.6398e+01|  4.6398e+01|   -9.947550|  1.3330e-06|    0.037167|
|        6230|  4.6398e+01|  4.6398e+01|   -9.951965|  1.3193e-06|    0.037165|
|        6240|  4.6398e+01|  4.6398e+01|   -9.956382|  1.3056e-06|    0.037164|
|        6250|  4.6398e+01|  4.6398e+01|   -9.960802|  1.2922e-06|    0.037163|
|        6260|  4.6398e+01|  4.6398e+01|   -9.965223|  1.2789e-06|    0.037162|
|        6270|  4.6398e+01|  4.6398e+01|   -9.969644|  1.2657e-06|    0.037161|
|        6280|  4.6398e+01|  4.6398e+01|   -9.974064|  1.2527e-06|    0.037160|
|        6290|  4.6398e+01|  4.6398e+01|   -9.978488|  1.2398e-06|    0.037159|
|        6300|  4.6398e+01|  4.6398e+01|   -9.982915|  1.2271e-06|    0.037158|
|        6310|  4.6398e+01|  4.6398e+01|   -9.987343|  1.2145e-06|    0.037157|
|        6320|  4.6398e+01|  4.6398e+01|   -9.991773|  1.2021e-06|    0.037155|
|        6330|  4.6398e+01|  4.6398e+01|   -9.996207|  1.1898e-06|    0.037154|
|        6340|  4.6398e+01|  4.6398e+01|  -10.000645|  1.1776e-06|    0.037153|
|        6350|  4.6398e+01|  4.6398e+01|  -10.005087|  1.1655e-06|    0.037152|
|        6360|  4.6398e+01|  4.6398e+01|  -10.009533|  1.1536e-06|    0.037151|
|        6370|  4.6398e+01|  4.6398e+01|  -10.013981|  1.1418e-06|    0.037150|
|        6380|  4.6398e+01|  4.6398e+01|  -10.018432|  1.1302e-06|    0.037149|
|        6390|  4.6398e+01|  4.6398e+01|  -10.022888|  1.1186e-06|    0.037148|
|        6400|  4.6398e+01|  4.6398e+01|  -10.027345|  1.1072e-06|    0.037147|
+-----------------------------------------------------------------------+
|        File Writing Summary       |              Filename             |
+-----------------------------------------------------------------------+
|SU2 binary restart                 |restart_flow_G3.dat                |
|Paraview                           |flow_G3.vtu                        |
|Paraview surface                   |surface_flow_G3.vtu                |
+-----------------------------------------------------------------------+
+-----------------------------------------------------------------------------+
|  Inner_Iter|     Min CFL|     Max CFL|      rms[P]|  Cauchy[CD]|          CD|
+-----------------------------------------------------------------------------+
|        6410|  4.6398e+01|  4.6398e+01|  -10.031802|  1.0959e-06|    0.037146|
|        6420|  4.6398e+01|  4.6398e+01|  -10.036260|  1.0848e-06|    0.037145|
|        6430|  4.6398e+01|  4.6398e+01|  -10.040716|  1.0737e-06|    0.037145|
|        6440|  4.6398e+01|  4.6398e+01|  -10.045173|  1.0628e-06|    0.037144|
|        6450|  4.6398e+01|  4.6398e+01|  -10.049630|  1.0519e-06|    0.037143|
|        6460|  4.6398e+01|  4.6398e+01|  -10.054123|  1.0412e-06|    0.037142|
|        6470|  4.6398e+01|  4.6398e+01|  -10.058602|  1.0306e-06|    0.037141|
|        6480|  4.6398e+01|  4.6398e+01|  -10.063077|  1.0201e-06|    0.037140|
|        6490|  4.6398e+01|  4.6398e+01|  -10.067548|  1.0097e-06|    0.037139|
|        6500|  4.6398e+01|  4.6398e+01|  -10.072003|  9.9937e-07|    0.037138|

----------------------------- Solver Exit -------------------------------
All convergence criteria satisfied.
+-----------------------------------------------------------------------+
|      Convergence Field     |     Value    |   Criterion  |  Converged |
+-----------------------------------------------------------------------+
|                      rms[P]|       -10.072|          < -9|         Yes|
|                  Cauchy[CD]|   9.99369e-07|       < 1e-06|         Yes|
+-----------------------------------------------------------------------+
-------------------------------------------------------------------------
+-----------------------------------------------------------------------+
|        File Writing Summary       |              Filename             |
+-----------------------------------------------------------------------+
|SU2 binary restart                 |restart_flow_G3.dat                |
|Paraview                           |flow_G3.vtu                        |
|Paraview surface                   |surface_flow_G3.vtu                |
+-----------------------------------------------------------------------+

------------------------- Solver Postprocessing -------------------------
Deleted CNumerics container.
Deleted CIntegration container.
Deleted CSolver container.
Deleted CIteration container.
Deleted CInterface container.
Deleted CGeometry container.
Deleted CFreeFormDefBox class.
Deleted CSurfaceMovement class.
Deleted CVolumetricMovement class.
Deleted CConfig container.
Deleted nInst container.
Deleted COutput class.
-------------------------------------------------------------------------

------------------------- Exit Success (SU2_CFD) ------------------------

