
-------------------------------------------------------------------------
|    ___ _   _ ___                                                      |
|   / __| | | |_  )   Release 7.4.0 "Blackbird"                         |
|   \__ \ |_| |/ /                                                      |
|   |___/\___//___|   Suite (Computational Fluid Dynamics Code)         |
|                                                                       |
-------------------------------------------------------------------------
| SU2 Project Website: https://su2code.github.io                        |
|                                                                       |
| The SU2 Project is maintained by the SU2 Foundation                   |
| (http://su2foundation.org)                                            |
-------------------------------------------------------------------------
| Copyright 2012-2022, SU2 Contributors                                 |
|                                                                       |
| SU2 is free software; you can redistribute it and/or                  |
| modify it under the terms of the GNU Lesser General Public            |
| License as published by the Free Software Foundation; either          |
| version 2.1 of the License, or (at your option) any later version.    |
|                                                                       |
| SU2 is distributed in the hope that it will be useful,                |
| but WITHOUT ANY WARRANTY; without even the implied warranty of        |
| MERCHANTABILITY or FITNESS FOR A PARTICULAR PURPOSE. See the GNU      |
| Lesser General Public License for more details.                       |
|                                                                       |
| You should have received a copy of the GNU Lesser General Public      |
| License along with SU2. If not, see <http://www.gnu.org/licenses/>.   |
-------------------------------------------------------------------------

Parsing config file for zone 0

----------------- Physical Case Definition ( Zone 0 ) -------------------
Incompressible RANS equations.
Turbulence model: Spalart-Allmaras-noft2
Hybrid RANS/LES: No Hybrid RANS/LES
No restart solution, use the values at infinity (freestream).
Non-Dimensional simulation using intialization values.
The reference area is 1 m^2.
The semi-span will be computed using the max y(3D) value.
The reference length is 1.00898 m.
Reference origin for moment evaluation is (-0.756, 0, 0).
Surface(s) where the force coefficients are evaluated: AIRFOIL.

Surface(s) plotted in the output file: AIRFOIL.
Input mesh file name: ../meshG6/meshG6.su2

--------------- Space Numerical Integration ( Zone 0 ) ------------------
Flux difference splitting (FDS) upwind scheme for the flow inviscid terms.
First order integration in space.
Average of gradients with correction (viscous flow terms).
Average of gradients with correction (viscous turbulence terms).
Gradient for upwind reconstruction: unweighted Least-Squares.
Gradient for viscous and source terms: Green-Gauss.

--------------- Time Numerical Integration  ( Zone 0 ) ------------------
Local time stepping (steady state simulation).
Euler implicit method for the flow equations.
FGMRES is used for solving the linear system.
Using a ILU(0) preconditioning.
Convergence criteria of the linear solver: 1e-06.
Max number of linear iterations: 10.
CFL adaptation. Factor down: 0.1, factor up: 1.2,
                lower limit: 1, upper limit: 1000,
                acceptable linear residual: 0.001.
Courant-Friedrichs-Lewy number:        2
Euler implicit time integration for the turbulence model.

------------------ Convergence Criteria  ( Zone 0 ) ---------------------
Maximum number of solver subiterations: 9999.
Begin convergence monitoring at iteration 10.
Residual minimum value: 1e-9.
Cauchy series min. value: 1e-06.
Number of Cauchy elements: 250.
Begin windowed time average at iteration 0.

-------------------- Output Information ( Zone 0 ) ----------------------
File writing frequency: 
+------------------------------------+
|                     File| Frequency|
+------------------------------------+
|                  RESTART|       200|
|                 PARAVIEW|       200|
|         SURFACE_PARAVIEW|       200|
+------------------------------------+
Writing the convergence history file every 1 inner iterations.
Writing the screen convergence history every 10 inner iterations.
The tabular file format is CSV (.csv).
Convergence history file name: history_G6.
Forces breakdown file name: forces_breakdown.dat.
Surface file name: surface_flow_G6.
Volume file name: flow_G6.
Restart file name: restart_flow_G6.dat.

------------- Config File Boundary Information ( Zone 0 ) ---------------
+-----------------------------------------------------------------------+
|                        Marker Type|                        Marker Name|
+-----------------------------------------------------------------------+
|                          Far-field|                           FARFIELD|
+-----------------------------------------------------------------------+
|                     Heat flux wall|                            AIRFOIL|
+-----------------------------------------------------------------------+

-------------------- Output Preprocessing ( Zone 0 ) --------------------

WARNING: SURFACE_PRESSURE_DROP can only be computed for at least 2 surfaces (outlet, inlet, ...)

Screen output fields: INNER_ITER, MIN_CFL, MAX_CFL, RMS_PRESSURE, CAUCHY_DRAG, DRAG
History output group(s): INNER_ITER, MIN_CFL, MAX_CFL, RMS_RES, LIFT, DRAG, MOMENT_Z, CAUCHY
Convergence field(s): RMS_PRESSURE, DRAG
Warning: No (valid) fields chosen for time convergence monitoring. Time convergence monitoring inactive.
Volume output fields: COORDINATES, SOLUTION, PRIMITIVE, RESIDUAL, MESH_QUALITY

------------------- Geometry Preprocessing ( Zone 0 ) -------------------
Two dimensional problem.
519958 grid points before partitioning.
518400 volume elements before partitioning.
2 surface markers.
868 boundary elements in index 0 (Marker = AIRFOIL).
2248 boundary elements in index 1 (Marker = FARFIELD).
Executing the partitioning functions.
Building the graph adjacency structure.
Calling ParMETIS... graph partitioning complete (7679 edge cuts).
Distributing ParMETIS coloring.
Rebalancing vertices.
Rebalancing volume element connectivity.
Rebalancing markers and surface elements.
535376 vertices including ghost points. 
526085 interior elements including halo cells. 
526085 quadrilaterals.
Establishing MPI communication patterns.
Setting point connectivity.
Renumbering points (Reverse Cuthill McKee Ordering).
Recomputing point connectivity.
Setting element connectivity.
Checking the numerical grid orientation.
All volume elements are correctly orientend.
There has been a re-orientation of 1568 LINE surface elements.
Identifying edges and vertices.
Setting the control volume structure.
Area of the computational grid: 102905.
Searching for the closest normal neighbors to the surfaces.
Storing a mapping from global to local point index.
Compute the surface curvature.
Max K: 2.29749e+06. Mean K: 6302.15. Standard deviation K: 82954.5.
Checking for periodicity.
Computing mesh quality statistics for the dual control volumes.
+--------------------------------------------------------------+
|           Mesh Quality Metric|        Minimum|        Maximum|
+--------------------------------------------------------------+
|    Orthogonality Angle (deg.)|        73.7004|             90|
|     CV Face Area Aspect Ratio|        1.00001|    8.13327e+06|
|           CV Sub-Volume Ratio|              1|        1213.46|
+--------------------------------------------------------------+
Finding max control volume width.
Communicating number of neighbors.
Wetted area = 2.05974 m.
Area projection in the x-plane = 0.121116 m, y-plane = 1.00883 m.
Max. coordinate in the x-direction = 1.00898 m, y-direction = 0.0759843 m.
Min. coordinate in the x-direction = 2.43301e-06 m, y-direction = -0.0451351 m.
Computing wall distances.

-------------------- Solver Preprocessing ( Zone 0 ) --------------------
Incompressible flow: rho_ref, vel_ref, and temp_ref
are based on the initial values, p_ref = rho_ref*vel_ref^2.
Force coefficients computed using initial values.
The reference area for force coeffs. is 1 m^2.
The reference length for force coeffs. is 1.00898 m.
The pressure is decomposed into thermodynamic and dynamic components.
The initial value of the dynamic pressure is 0.
Mach number: 0.0276747, computed using the Bulk modulus.
For external flows, the initial state is imposed at the far-field.
Angle of attack (deg): 14, computed using the initial velocity.
Side slip angle (deg): 0, computed using the initial velocity.
Reynolds number per meter: 594999, computed using initial values.
Reynolds number is a byproduct of inputs only (not used internally).
SI units only. The grid should be dimensional (meters).
No energy equation.

-- Models:
+------------------------------------------------------------------------------+
|          Viscosity Model|        Conductivity Model|              Fluid Model|
+------------------------------------------------------------------------------+
|       CONSTANT_VISCOSITY|          CONSTANT_PRANDTL|         CONSTANT_DENSITY|
+------------------------------------------------------------------------------+
-- Fluid properties:
+------------------------------------------------------------------------------+
|                  Name|    Dim. value|    Ref. value|      Unit|Non-dim. value|
+------------------------------------------------------------------------------+
|             Viscosity|      1.92e-05|        11.424|   N.s/m^2|   1.68067e-06|
+------------------------------------------------------------------------------+
|        Prandtl (Lam.)|             -|             -|         -|          0.72|
|       Prandtl (Turb.)|             -|             -|         -|           0.9|
+------------------------------------------------------------------------------+
|          Bulk Modulus|        142000|             1|        Pa|        142000|
+------------------------------------------------------------------------------+
-- Initial and free-stream conditions:
+------------------------------------------------------------------------------+
|                  Name|    Dim. value|    Ref. value|      Unit|Non-dim. value|
+------------------------------------------------------------------------------+
|      Dynamic Pressure|             0|       108.756|        Pa|             0|
|        Total Pressure|       54.3781|       108.756|        Pa|           0.5|
|               Density|           1.2|           1.2|    kg/m^3|             1|
|            Velocity-X|        9.2372|       9.51999|       m/s|      0.970296|
|            Velocity-Y|        2.3031|       9.51999|       m/s|      0.241923|
|    Velocity Magnitude|       9.51999|       9.51999|       m/s|             1|
+------------------------------------------------------------------------------+
|             Viscosity|      1.92e-05|        11.424|   N.s/m^2|   1.68067e-06|
|          Conductivity|             -|       3.59312|   W/m^2.K|             -|
|     Turb. Kin. Energy|       1.35945|       90.6301|   m^2/s^2|         0.015|
|     Spec. Dissipation|       8496.58|       9.51999|       1/s|       892.499|
+------------------------------------------------------------------------------+
|           Mach Number|             -|             -|         -|     0.0276747|
|       Reynolds Number|             -|             -|         -|        594999|
+------------------------------------------------------------------------------+
Initialize Jacobian structure (Navier-Stokes). MG level: 0.
Initialize Jacobian structure (SA model).

------------------- Numerics Preprocessing ( Zone 0 ) -------------------

----------------- Integration Preprocessing ( Zone 0 ) ------------------

------------------- Iteration Preprocessing ( Zone 0 ) ------------------
Euler/Navier-Stokes/RANS fluid iteration.

------------------------------ Begin Solver -----------------------------

Simulation Run using the Single-zone Driver
+-----------------------------------------------------------------------------+
|  Inner_Iter|     Min CFL|     Max CFL|      rms[P]|  Cauchy[CD]|          CD|
+-----------------------------------------------------------------------------+
|           0|  2.4000e+00|  2.4000e+00|   -4.511276|  1.0000e+00|    0.673838|
|          10|  1.4860e+01|  1.4860e+01|   -5.241164|  1.1825e-03|    0.888466|
|          20|  7.6675e+00|  7.6675e+00|   -5.426542|  1.2592e-03|    0.871613|
|          30|  3.9563e+00|  3.9563e+00|   -5.390154|  1.3762e-03|    0.846533|
|          40|  2.4496e+01|  2.4496e+01|   -5.336985|  1.5342e-03|    0.813839|
|          50|  1.2639e+01|  1.2639e+01|   -5.288483|  1.8823e-03|    0.746468|
|          60|  6.5217e+00|  6.5217e+00|   -5.248103|  2.4501e-03|    0.648592|
|          70|  4.0381e+01|  4.0381e+01|   -5.224879|  3.0497e-03|    0.559089|
|          80|  2.0836e+01|  2.0836e+01|   -5.215869|  3.5110e-03|    0.498729|
|          90|  1.0751e+01|  1.0751e+01|   -5.215255|  4.3726e-03|    0.403477|
|         100|  3.8522e+01|  3.8522e+01|   -5.245407|  5.9069e-03|    0.277359|
|         110|  3.8522e+01|  3.8522e+01|   -5.369536|  8.6593e-03|    0.142574|
|         120|  3.8522e+01|  3.8522e+01|   -5.392343|  1.0933e-02|    0.079669|
|         130|  3.8522e+01|  3.8522e+01|   -5.403601|  1.3141e-02|    0.024480|
|         140|  1.1502e+01|  1.1502e+01|   -5.406147|  1.4622e-02|   -0.012544|
|         150|  5.9350e+00|  5.9350e+00|   -5.395549|  1.5673e-02|   -0.038835|
|         160|  3.6748e+01|  3.6748e+01|   -5.386990|  1.6160e-02|   -0.051004|
|         170|  1.8961e+01|  1.8961e+01|   -5.387186|  1.6268e-02|   -0.051700|
|         180|  9.7836e+00|  9.7836e+00|   -5.396669|  1.7161e-02|   -0.029369|
|         190|  4.2068e+01|  4.2068e+01|   -5.407435|  1.9516e-02|    0.029484|
|         200|  4.2068e+01|  4.2068e+01|   -5.417729|  2.4489e-02|    0.176913|
+-----------------------------------------------------------------------+
|        File Writing Summary       |              Filename             |
+-----------------------------------------------------------------------+
|SU2 binary restart                 |restart_flow_G6.dat                |
|Paraview                           |flow_G6.vtu                        |
|Paraview surface                   |surface_flow_G6.vtu                |
+-----------------------------------------------------------------------+
+-----------------------------------------------------------------------------+
|  Inner_Iter|     Min CFL|     Max CFL|      rms[P]|  Cauchy[CD]|          CD|
+-----------------------------------------------------------------------------+
|         210|  4.2068e+01|  4.2068e+01|   -5.433160|  2.6420e-02|    0.290612|
|         220|  4.2068e+01|  4.2068e+01|   -5.445348|  2.6829e-02|    0.293868|
|         230|  4.2068e+01|  4.2068e+01|   -5.438966|  2.8337e-02|    0.203045|
|         240|  2.1706e+01|  2.1706e+01|   -5.435193|  2.9351e-02|    0.158410|
|         250|  4.5010e+01|  4.5010e+01|   -5.417714|  3.1591e-02|    0.091356|
|         260|  4.5010e+01|  4.5010e+01|   -5.438112|  3.1140e-02|    0.091122|
|         270|  4.5010e+01|  4.5010e+01|   -5.452929|  3.2477e-02|    0.130963|
|         280|  4.5010e+01|  4.5010e+01|   -5.485349|  3.3045e-02|    0.155682|
|         290|  1.6128e+01|  1.6128e+01|   -5.492646|  3.2962e-02|    0.158656|
|         300|  8.3216e+00|  8.3216e+00|   -5.481977|  3.2631e-02|    0.159317|
|         310|  5.1525e+01|  5.1525e+01|   -5.474435|  3.2111e-02|    0.161251|
|         320|  2.6586e+01|  2.6586e+01|   -5.478186|  3.1586e-02|    0.164267|
|         330|  4.5940e+01|  4.5940e+01|   -5.511810|  3.1322e-02|    0.172601|
|         340|  4.5940e+01|  4.5940e+01|   -5.553796|  3.0706e-02|    0.162801|
|         350|  4.5940e+01|  4.5940e+01|   -5.559557|  3.0049e-02|    0.131065|
|         360|  9.5261e+00|  9.5261e+00|   -5.546880|  2.8055e-02|    0.108677|
|         370|  4.9153e+00|  4.9153e+00|   -5.538962|  2.6103e-02|    0.100309|
|         380|  3.0434e+01|  3.0434e+01|   -5.539252|  2.3956e-02|    0.098799|
|         390|  1.5703e+01|  1.5703e+01|   -5.553492|  2.2551e-02|    0.100602|
|         400|  4.6890e+01|  4.6890e+01|   -5.599333|  2.1898e-02|    0.111213|
+-----------------------------------------------------------------------+
|        File Writing Summary       |              Filename             |
+-----------------------------------------------------------------------+
|SU2 binary restart                 |restart_flow_G6.dat                |
|Paraview                           |flow_G6.vtu                        |
|Paraview surface                   |surface_flow_G6.vtu                |
+-----------------------------------------------------------------------+
+-----------------------------------------------------------------------------+
|  Inner_Iter|     Min CFL|     Max CFL|      rms[P]|  Cauchy[CD]|          CD|
+-----------------------------------------------------------------------------+
|         410|  9.7231e+00|  9.7231e+00|   -5.670836|  2.1949e-02|    0.127357|
|         420|  5.0169e+01|  5.0169e+01|   -5.683334|  2.2200e-02|    0.139418|
|         430|  5.0169e+01|  5.0169e+01|   -5.675492|  2.1745e-02|    0.155643|
|         440|  5.0169e+01|  5.0169e+01|   -5.694630|  1.9552e-02|    0.151623|
|         450|  5.0169e+01|  5.0169e+01|   -5.764046|  1.5124e-02|    0.132427|
|         460|  6.0203e+01|  6.0203e+01|   -5.841804|  1.3821e-02|    0.113336|
|         470|  3.1063e+01|  3.1063e+01|   -5.861863|  1.3595e-02|    0.108285|
|         480|  1.6028e+01|  1.6028e+01|   -5.875393|  1.2238e-02|    0.104271|
|         490|  8.2701e+00|  8.2701e+00|   -5.884167|  1.1291e-02|    0.102562|
|         500|  5.1206e+01|  5.1206e+01|   -5.887485|  9.0977e-03|    0.103767|
|         510|  2.6421e+01|  2.6421e+01|   -5.894506|  8.4490e-03|    0.105946|
|         520|  1.3633e+01|  1.3633e+01|   -5.912935|  7.2122e-03|    0.110763|
|         530|  4.8849e+01|  4.8849e+01|   -5.949386|  6.7913e-03|    0.118345|
|         540|  5.8619e+00|  5.8619e+00|   -6.062391|  6.9878e-03|    0.126705|
|         550|  3.6295e+01|  3.6295e+01|   -6.101275|  7.0083e-03|    0.127888|
|         560|  5.2265e+01|  5.2265e+01|   -6.092595|  7.0185e-03|    0.126786|
|         570|  1.8727e+01|  1.8727e+01|   -6.042542|  7.0442e-03|    0.123671|
|         580|  5.5920e+00|  5.5920e+00|   -6.036411|  7.0615e-03|    0.117226|
|         590|  3.4624e+01|  3.4624e+01|   -6.062085|  6.8998e-03|    0.114792|
|         600|  1.7865e+01|  1.7865e+01|   -6.143600|  6.1573e-03|    0.111004|
+-----------------------------------------------------------------------+
|        File Writing Summary       |              Filename             |
+-----------------------------------------------------------------------+
|SU2 binary restart                 |restart_flow_G6.dat                |
|Paraview                           |flow_G6.vtu                        |
|Paraview surface                   |surface_flow_G6.vtu                |
+-----------------------------------------------------------------------+
+-----------------------------------------------------------------------------+
|  Inner_Iter|     Min CFL|     Max CFL|      rms[P]|  Cauchy[CD]|          CD|
+-----------------------------------------------------------------------------+
|         610|  5.3345e+01|  5.3345e+01|   -6.323241|  5.5395e-03|    0.107176|
|         620|  5.3345e+01|  5.3345e+01|   -6.309493|  5.2907e-03|    0.108258|
|         630|  5.3345e+01|  5.3345e+01|   -6.205542|  5.4214e-03|    0.113569|
|         640|  5.3345e+01|  5.3345e+01|   -6.330005|  5.4353e-03|    0.116157|
|         650|  5.3345e+01|  5.3345e+01|   -6.522540|  5.1229e-03|    0.113684|
|         660|  9.2181e+00|  9.2181e+00|   -6.338254|  4.7064e-03|    0.110302|
|         670|  5.7076e+01|  5.7076e+01|   -6.294292|  4.3986e-03|    0.108876|
|         680|  2.9450e+01|  2.9450e+01|   -6.286884|  3.9893e-03|    0.108105|
|         690|  1.5196e+01|  1.5196e+01|   -6.334866|  3.8548e-03|    0.107374|
|         700|  5.4448e+01|  5.4448e+01|   -6.473145|  3.3252e-03|    0.106956|
|         710|  5.4448e+01|  5.4448e+01|   -6.639889|  2.7089e-03|    0.107196|
|         720|  5.4448e+01|  5.4448e+01|   -6.444943|  2.5667e-03|    0.108295|
|         730|  1.6258e+01|  1.6258e+01|   -6.431361|  2.4338e-03|    0.108802|
|         740|  8.3889e+00|  8.3889e+00|   -6.487598|  2.3739e-03|    0.108921|
|         750|  5.1942e+01|  5.1942e+01|   -6.558062|  2.3401e-03|    0.108572|
|         760|  5.1942e+01|  5.1942e+01|   -6.765073|  2.3520e-03|    0.106028|
|         770|  5.1942e+01|  5.1942e+01|   -6.555833|  2.3039e-03|    0.102665|
|         780|  5.1942e+01|  5.1942e+01|   -6.494872|  2.1168e-03|    0.100716|
|         790|  1.0771e+01|  1.0771e+01|   -6.602705|  1.8553e-03|    0.100601|
|         800|  5.5574e+00|  5.5574e+00|   -6.700116|  1.8346e-03|    0.101017|
+-----------------------------------------------------------------------+
|        File Writing Summary       |              Filename             |
+-----------------------------------------------------------------------+
|SU2 binary restart                 |restart_flow_G6.dat                |
|Paraview                           |flow_G6.vtu                        |
|Paraview surface                   |surface_flow_G6.vtu                |
+-----------------------------------------------------------------------+
+-----------------------------------------------------------------------------+
|  Inner_Iter|     Min CFL|     Max CFL|      rms[P]|  Cauchy[CD]|          CD|
+-----------------------------------------------------------------------------+
|         810|  3.4410e+01|  3.4410e+01|   -6.763954|  1.7883e-03|    0.101323|
|         820|  1.7755e+01|  1.7755e+01|   -6.774290|  1.7112e-03|    0.101899|
|         830|  5.3016e+01|  5.3016e+01|   -6.682084|  1.5293e-03|    0.102739|
|         840|  1.5830e+01|  1.5830e+01|   -6.640209|  1.4621e-03|    0.103172|
|         850|  8.1681e+00|  8.1681e+00|   -6.666846|  1.3312e-03|    0.103234|
|         860|  5.0575e+01|  5.0575e+01|   -6.710594|  1.1978e-03|    0.103047|
|         870|  2.6095e+01|  2.6095e+01|   -6.791676|  1.1411e-03|    0.102628|
|         880|  5.4112e+01|  5.4112e+01|   -6.848801|  1.0142e-03|    0.100994|
|         890|  2.3267e+01|  2.3267e+01|   -6.767165|  9.6876e-04|    0.099877|
|         900|  1.2005e+01|  1.2005e+01|   -6.700183|  9.2585e-04|    0.098795|
|         910|  6.1945e+00|  6.1945e+00|   -6.675886|  8.4326e-04|    0.097834|
|         920|  3.8354e+01|  3.8354e+01|   -6.685079|  8.0329e-04|    0.097531|
|         930|  1.9790e+01|  1.9790e+01|   -6.733567|  7.8076e-04|    0.097391|
|         940|  1.0211e+01|  1.0211e+01|   -6.800886|  7.6455e-04|    0.097664|
|         950|  6.3225e+01|  6.3225e+01|   -6.839710|  7.7106e-04|    0.098216|
|         960|  3.2623e+01|  3.2623e+01|   -6.853212|  7.7975e-04|    0.098718|
|         970|  1.6833e+01|  1.6833e+01|   -6.843519|  7.6919e-04|    0.099473|
|         980|  8.6853e+00|  8.6853e+00|   -6.847708|  7.7419e-04|    0.100065|
|         990|  5.3777e+01|  5.3777e+01|   -6.870535|  7.7851e-04|    0.100333|
|        1000|  2.7748e+01|  2.7748e+01|   -6.931332|  7.6816e-04|    0.100383|
+-----------------------------------------------------------------------+
|        File Writing Summary       |              Filename             |
+-----------------------------------------------------------------------+
|SU2 binary restart                 |restart_flow_G6.dat                |
|Paraview                           |flow_G6.vtu                        |
|Paraview surface                   |surface_flow_G6.vtu                |
+-----------------------------------------------------------------------+
+-----------------------------------------------------------------------------+
|  Inner_Iter|     Min CFL|     Max CFL|      rms[P]|  Cauchy[CD]|          CD|
+-----------------------------------------------------------------------------+
|        1010|  1.4317e+01|  1.4317e+01|   -7.044739|  6.8544e-04|    0.100077|
|        1020|  6.1561e+01|  6.1561e+01|   -7.093624|  5.8857e-04|    0.099270|
|        1030|  1.2765e+01|  1.2765e+01|   -6.978865|  5.6042e-04|    0.098055|
|        1040|  6.5867e+00|  6.5867e+00|   -6.912162|  5.8810e-04|    0.097101|
|        1050|  4.0783e+01|  4.0783e+01|   -6.886915|  5.8744e-04|    0.096706|
|        1060|  5.8727e+01|  5.8727e+01|   -6.894393|  5.9505e-04|    0.096242|
|        1070|  2.5252e+01|  2.5252e+01|   -6.915284|  5.7916e-04|    0.096411|
|        1080|  1.3029e+01|  1.3029e+01|   -6.935982|  5.6543e-04|    0.096888|
|        1090|  5.6024e+01|  5.6024e+01|   -6.949685|  5.7839e-04|    0.097633|
|        1100|  5.6024e+01|  5.6024e+01|   -6.992815|  6.2160e-04|    0.098806|
|        1110|  5.6024e+01|  5.6024e+01|   -7.074468|  6.2994e-04|    0.099176|
|        1120|  5.6024e+01|  5.6024e+01|   -7.101170|  6.3764e-04|    0.098576|
|        1130|  5.6024e+01|  5.6024e+01|   -7.040949|  6.1617e-04|    0.097506|
|        1140|  5.6024e+01|  5.6024e+01|   -6.994558|  6.0283e-04|    0.096727|
|        1150|  5.6024e+01|  5.6024e+01|   -6.983374|  5.6779e-04|    0.096712|
|        1160|  5.6024e+01|  5.6024e+01|   -6.993655|  5.5488e-04|    0.097351|
|        1170|  5.6024e+01|  5.6024e+01|   -7.016678|  5.7342e-04|    0.098118|
|        1180|  9.6809e+00|  9.6809e+00|   -7.048867|  5.8230e-04|    0.098487|
|        1190|  5.9941e+01|  5.9941e+01|   -7.062925|  5.7307e-04|    0.098524|
|        1200|  3.0928e+01|  3.0928e+01|   -7.077965|  5.5269e-04|    0.098481|
+-----------------------------------------------------------------------+
|        File Writing Summary       |              Filename             |
+-----------------------------------------------------------------------+
|SU2 binary restart                 |restart_flow_G6.dat                |
|Paraview                           |flow_G6.vtu                        |
|Paraview surface                   |surface_flow_G6.vtu                |
+-----------------------------------------------------------------------+
+-----------------------------------------------------------------------------+
|  Inner_Iter|     Min CFL|     Max CFL|      rms[P]|  Cauchy[CD]|          CD|
+-----------------------------------------------------------------------------+
|        1210|  1.5958e+01|  1.5958e+01|   -7.094532|  5.3925e-04|    0.098316|
|        1220|  8.2342e+00|  8.2342e+00|   -7.102222|  5.2130e-04|    0.098009|
|        1230|  5.0984e+01|  5.0984e+01|   -7.107465|  5.0632e-04|    0.097792|
|        1240|  2.6307e+01|  2.6307e+01|   -7.107502|  5.0387e-04|    0.097585|
|        1250|  1.3574e+01|  1.3574e+01|   -7.102590|  5.1074e-04|    0.097352|
|        1260|  5.8364e+01|  5.8364e+01|   -7.095139|  5.0459e-04|    0.097200|
|        1270|  5.8364e+01|  5.8364e+01|   -7.084474|  4.7650e-04|    0.097268|
|        1280|  2.0913e+01|  2.0913e+01|   -7.078652|  4.3430e-04|    0.097427|
|        1290|  1.0791e+01|  1.0791e+01|   -7.070473|  4.0305e-04|    0.097600|
|        1300|  6.6813e+01|  6.6813e+01|   -7.065333|  3.9346e-04|    0.097756|
|        1310|  3.4474e+01|  3.4474e+01|   -7.065676|  3.7740e-04|    0.097847|
|        1320|  1.7788e+01|  1.7788e+01|   -7.069434|  3.7376e-04|    0.097925|
|        1330|  6.3737e+01|  6.3737e+01|   -7.076799|  3.5625e-04|    0.097904|
|        1340|  6.3737e+01|  6.3737e+01|   -7.097268|  3.3649e-04|    0.097654|
|        1350|  3.2887e+01|  3.2887e+01|   -7.109292|  2.9510e-04|    0.097515|
|        1360|  6.8194e+01|  6.8194e+01|   -7.115224|  2.9006e-04|    0.097251|
|        1370|  6.8194e+01|  6.8194e+01|   -7.120054|  2.7151e-04|    0.097114|
|        1380|  6.8194e+01|  6.8194e+01|   -7.113734|  2.3023e-04|    0.097145|
|        1390|  6.8194e+01|  6.8194e+01|   -7.116355|  2.0076e-04|    0.097188|
|        1400|  6.8194e+01|  6.8194e+01|   -7.129211|  1.9591e-04|    0.097104|
+-----------------------------------------------------------------------+
|        File Writing Summary       |              Filename             |
+-----------------------------------------------------------------------+
|SU2 binary restart                 |restart_flow_G6.dat                |
|Paraview                           |flow_G6.vtu                        |
|Paraview surface                   |surface_flow_G6.vtu                |
+-----------------------------------------------------------------------+
+-----------------------------------------------------------------------------+
|  Inner_Iter|     Min CFL|     Max CFL|      rms[P]|  Cauchy[CD]|          CD|
+-----------------------------------------------------------------------------+
|        1410|  6.8194e+01|  6.8194e+01|   -7.144887|  1.7927e-04|    0.096882|
|        1420|  6.8194e+01|  6.8194e+01|   -7.162306|  1.5873e-04|    0.096628|
|        1430|  6.8194e+01|  6.8194e+01|   -7.177931|  1.5102e-04|    0.096451|
|        1440|  6.8194e+01|  6.8194e+01|   -7.198103|  1.5265e-04|    0.096368|
|        1450|  6.8194e+01|  6.8194e+01|   -7.227115|  1.5347e-04|    0.096304|
|        1460|  6.8194e+01|  6.8194e+01|   -7.258525|  1.5209e-04|    0.096174|
|        1470|  6.8194e+01|  6.8194e+01|   -7.289016|  1.4827e-04|    0.095962|
|        1480|  6.8194e+01|  6.8194e+01|   -7.315734|  1.4861e-04|    0.095737|
|        1490|  6.8194e+01|  6.8194e+01|   -7.338601|  1.4706e-04|    0.095569|
|        1500|  6.8194e+01|  6.8194e+01|   -7.361306|  1.4177e-04|    0.095468|
|        1510|  1.6969e+01|  1.6969e+01|   -7.377086|  1.3807e-04|    0.095409|
|        1520|  8.7555e+00|  8.7555e+00|   -7.383847|  1.3631e-04|    0.095347|
|        1530|  5.4212e+01|  5.4212e+01|   -7.387206|  1.3164e-04|    0.095305|
|        1540|  2.7972e+01|  2.7972e+01|   -7.391670|  1.2728e-04|    0.095241|
|        1550|  6.9604e+01|  6.9604e+01|   -7.393492|  1.2704e-04|    0.095091|
|        1560|  6.9604e+01|  6.9604e+01|   -7.389297|  1.3097e-04|    0.094901|
|        1570|  6.9604e+01|  6.9604e+01|   -7.381440|  1.3308e-04|    0.094771|
|        1580|  6.9604e+01|  6.9604e+01|   -7.375175|  1.3458e-04|    0.094694|
|        1590|  6.9604e+01|  6.9604e+01|   -7.370032|  1.2765e-04|    0.094616|
|        1600|  6.9604e+01|  6.9604e+01|   -7.364511|  1.2636e-04|    0.094510|
+-----------------------------------------------------------------------+
|        File Writing Summary       |              Filename             |
+-----------------------------------------------------------------------+
|SU2 binary restart                 |restart_flow_G6.dat                |
|Paraview                           |flow_G6.vtu                        |
|Paraview surface                   |surface_flow_G6.vtu                |
+-----------------------------------------------------------------------+
+-----------------------------------------------------------------------------+
|  Inner_Iter|     Min CFL|     Max CFL|      rms[P]|  Cauchy[CD]|          CD|
+-----------------------------------------------------------------------------+
|        1610|  6.9604e+01|  6.9604e+01|   -7.357548|  1.2073e-04|    0.094387|
|        1620|  6.9604e+01|  6.9604e+01|   -7.350677|  1.1954e-04|    0.094280|
|        1630|  6.9604e+01|  6.9604e+01|   -7.346881|  1.2073e-04|    0.094212|
|        1640|  6.9604e+01|  6.9604e+01|   -7.347416|  1.2055e-04|    0.094174|
|        1650|  6.9604e+01|  6.9604e+01|   -7.351910|  1.1879e-04|    0.094134|
|        1660|  6.9604e+01|  6.9604e+01|   -7.359647|  1.1204e-04|    0.094081|
|        1670|  1.0023e+01|  1.0023e+01|   -7.369304|  1.0388e-04|    0.094031|
|        1680|  6.2059e+01|  6.2059e+01|   -7.376733|  9.7655e-05|    0.094010|
|        1690|  2.6684e+01|  2.6684e+01|   -7.383799|  9.4699e-05|    0.094000|
|        1700|  1.3769e+01|  1.3769e+01|   -7.391096|  9.2712e-05|    0.093986|
|        1710|  7.1043e+01|  7.1043e+01|   -7.397965|  8.7853e-05|    0.093977|
|        1720|  7.1043e+00|  7.1043e+00|   -7.417642|  7.9601e-05|    0.093975|
|        1730|  4.3988e+01|  4.3988e+01|   -7.428006|  7.0686e-05|    0.093972|
|        1740|  2.2697e+01|  2.2697e+01|   -7.439105|  6.4262e-05|    0.093976|
|        1750|  6.7772e+01|  6.7772e+01|   -7.453721|  6.0478e-05|    0.093977|
|        1760|  6.7772e+01|  6.7772e+01|   -7.483510|  5.8381e-05|    0.093971|
|        1770|  6.7772e+01|  6.7772e+01|   -7.515684|  5.6084e-05|    0.093968|
|        1780|  6.7772e+01|  6.7772e+01|   -7.551043|  5.4882e-05|    0.093981|
|        1790|  6.7772e+01|  6.7772e+01|   -7.588134|  5.3161e-05|    0.094002|
|        1800|  6.7772e+01|  6.7772e+01|   -7.626011|  4.7852e-05|    0.094019|
+-----------------------------------------------------------------------+
|        File Writing Summary       |              Filename             |
+-----------------------------------------------------------------------+
|SU2 binary restart                 |restart_flow_G6.dat                |
|Paraview                           |flow_G6.vtu                        |
|Paraview surface                   |surface_flow_G6.vtu                |
+-----------------------------------------------------------------------+
+-----------------------------------------------------------------------------+
|  Inner_Iter|     Min CFL|     Max CFL|      rms[P]|  Cauchy[CD]|          CD|
+-----------------------------------------------------------------------------+
|        1810|  6.7772e+01|  6.7772e+01|   -7.662652|  4.0896e-05|    0.094035|
|        1820|  6.7772e+01|  6.7772e+01|   -7.694460|  3.6311e-05|    0.094051|
|        1830|  6.7772e+01|  6.7772e+01|   -7.717037|  3.3875e-05|    0.094067|
|        1840|  6.7772e+01|  6.7772e+01|   -7.727145|  3.1617e-05|    0.094088|
|        1850|  9.7592e+00|  9.7592e+00|   -7.724177|  2.8263e-05|    0.094111|
|        1860|  6.0426e+01|  6.0426e+01|   -7.723483|  2.3526e-05|    0.094114|
|        1870|  7.2512e+01|  7.2512e+01|   -7.708096|  2.0283e-05|    0.094140|
|        1880|  7.2512e+01|  7.2512e+01|   -7.690434|  1.8259e-05|    0.094157|
|        1890|  7.2512e+01|  7.2512e+01|   -7.672484|  1.7528e-05|    0.094177|
|        1900|  7.2512e+01|  7.2512e+01|   -7.657815|  1.6744e-05|    0.094198|
|        1910|  7.2512e+01|  7.2512e+01|   -7.647660|  1.5275e-05|    0.094214|
|        1920|  7.2512e+01|  7.2512e+01|   -7.642737|  1.3912e-05|    0.094230|
|        1930|  7.2512e+01|  7.2512e+01|   -7.643592|  1.3586e-05|    0.094243|
|        1940|  7.2512e+01|  7.2512e+01|   -7.650626|  1.3639e-05|    0.094254|
|        1950|  7.2512e+01|  7.2512e+01|   -7.663604|  1.3534e-05|    0.094265|
|        1960|  7.2512e+01|  7.2512e+01|   -7.682195|  1.3613e-05|    0.094276|
|        1970|  7.2512e+01|  7.2512e+01|   -7.706327|  1.3782e-05|    0.094285|
|        1980|  7.2512e+01|  7.2512e+01|   -7.735846|  1.3976e-05|    0.094293|
|        1990|  7.2512e+01|  7.2512e+01|   -7.770494|  1.3998e-05|    0.094300|
|        2000|  7.2512e+01|  7.2512e+01|   -7.809958|  1.4011e-05|    0.094308|
+-----------------------------------------------------------------------+
|        File Writing Summary       |              Filename             |
+-----------------------------------------------------------------------+
|SU2 binary restart                 |restart_flow_G6.dat                |
|Paraview                           |flow_G6.vtu                        |
|Paraview surface                   |surface_flow_G6.vtu                |
+-----------------------------------------------------------------------+
+-----------------------------------------------------------------------------+
|  Inner_Iter|     Min CFL|     Max CFL|      rms[P]|  Cauchy[CD]|          CD|
+-----------------------------------------------------------------------------+
|        2010|  7.2512e+01|  7.2512e+01|   -7.853524|  1.4029e-05|    0.094315|
|        2020|  7.2512e+01|  7.2512e+01|   -7.899906|  1.4158e-05|    0.094322|
|        2030|  3.1179e+01|  3.1179e+01|   -7.927637|  1.3812e-05|    0.094326|
|        2040|  1.6088e+01|  1.6088e+01|   -7.950297|  1.3306e-05|    0.094325|
|        2050|  8.3008e+00|  8.3008e+00|   -7.971064|  1.2907e-05|    0.094330|
|        2060|  5.1396e+01|  5.1396e+01|   -7.988075|  1.2461e-05|    0.094331|
|        2070|  2.6519e+01|  2.6519e+01|   -8.005879|  1.2022e-05|    0.094333|
|        2080|  1.3683e+01|  1.3683e+01|   -8.025651|  1.1580e-05|    0.094335|
|        2090|  7.0603e+01|  7.0603e+01|   -8.040318|  1.0970e-05|    0.094337|
|        2100|  7.0603e+01|  7.0603e+01|   -8.066852|  1.0607e-05|    0.094350|
|        2110|  2.1082e+01|  2.1082e+01|   -8.078149|  1.0692e-05|    0.094357|
|        2120|  1.0878e+01|  1.0878e+01|   -8.082111|  9.9142e-06|    0.094361|
|        2130|  6.7353e+01|  6.7353e+01|   -8.083829|  9.4420e-06|    0.094366|
|        2140|  6.7353e+01|  6.7353e+01|   -8.080086|  9.1264e-06|    0.094378|
|        2150|  6.7353e+01|  6.7353e+01|   -8.071083|  8.5552e-06|    0.094384|
|        2160|  6.7353e+01|  6.7353e+01|   -8.057354|  8.3471e-06|    0.094396|
|        2170|  6.7353e+01|  6.7353e+01|   -8.042660|  8.3156e-06|    0.094410|
|        2180|  6.7353e+01|  6.7353e+01|   -8.029493|  8.2681e-06|    0.094422|
|        2190|  6.7353e+01|  6.7353e+01|   -8.019231|  8.3296e-06|    0.094435|
|        2200|  6.7353e+01|  6.7353e+01|   -8.011869|  8.4493e-06|    0.094449|
+-----------------------------------------------------------------------+
|        File Writing Summary       |              Filename             |
+-----------------------------------------------------------------------+
|SU2 binary restart                 |restart_flow_G6.dat                |
|Paraview                           |flow_G6.vtu                        |
|Paraview surface                   |surface_flow_G6.vtu                |
+-----------------------------------------------------------------------+
+-----------------------------------------------------------------------------+
|  Inner_Iter|     Min CFL|     Max CFL|      rms[P]|  Cauchy[CD]|          CD|
+-----------------------------------------------------------------------------+
|        2210|  6.7353e+01|  6.7353e+01|   -8.008533|  8.5483e-06|    0.094463|
|        2220|  6.7353e+01|  6.7353e+01|   -8.010085|  8.7726e-06|    0.094477|
|        2230|  1.6760e+01|  1.6760e+01|   -8.016515|  8.9502e-06|    0.094490|
|        2240|  8.6476e+00|  8.6476e+00|   -8.019324|  8.9196e-06|    0.094496|
|        2250|  5.3544e+01|  5.3544e+01|   -8.025183|  8.8767e-06|    0.094502|
|        2260|  2.7627e+01|  2.7627e+01|   -8.030747|  8.9491e-06|    0.094511|
|        2270|  8.2495e+01|  8.2495e+01|   -8.039431|  9.1744e-06|    0.094524|
|        2280|  4.2565e+01|  4.2565e+01|   -8.050811|  9.1963e-06|    0.094529|
|        2290|  2.1963e+01|  2.1963e+01|   -8.060335|  9.1398e-06|    0.094535|
|        2300|  1.1332e+01|  1.1332e+01|   -8.072050|  9.2606e-06|    0.094545|
|        2310|  7.0167e+01|  7.0167e+01|   -8.082859|  9.3553e-06|    0.094552|
|        2320|  7.0167e+01|  7.0167e+01|   -8.110467|  1.0075e-05|    0.094575|
|        2330|  7.0167e+01|  7.0167e+01|   -8.145637|  1.0668e-05|    0.094595|
|        2340|  2.0952e+01|  2.0952e+01|   -8.170520|  1.0855e-05|    0.094605|
|        2350|  1.0811e+01|  1.0811e+01|   -8.190876|  1.0688e-05|    0.094615|
|        2360|  6.6937e+01|  6.6937e+01|   -8.205898|  1.0728e-05|    0.094623|
|        2370|  6.6937e+01|  6.6937e+01|   -8.243950|  1.1190e-05|    0.094641|
|        2380|  6.6937e+01|  6.6937e+01|   -8.284682|  1.1581e-05|    0.094655|
|        2390|  6.6937e+01|  6.6937e+01|   -8.322839|  1.1897e-05|    0.094675|
|        2400|  3.4538e+01|  3.4538e+01|   -8.337726|  1.1896e-05|    0.094682|
+-----------------------------------------------------------------------+
|        File Writing Summary       |              Filename             |
+-----------------------------------------------------------------------+
|SU2 binary restart                 |restart_flow_G6.dat                |
|Paraview                           |flow_G6.vtu                        |
|Paraview surface                   |surface_flow_G6.vtu                |
+-----------------------------------------------------------------------+
+-----------------------------------------------------------------------------+
|  Inner_Iter|     Min CFL|     Max CFL|      rms[P]|  Cauchy[CD]|          CD|
+-----------------------------------------------------------------------------+
|        2410|  1.7821e+01|  1.7821e+01|   -8.352186|  1.1807e-05|    0.094691|
|        2420|  6.3855e+01|  6.3855e+01|   -8.366004|  1.1685e-05|    0.094702|
|        2430|  6.3855e+01|  6.3855e+01|   -8.386530|  1.1795e-05|    0.094717|
|        2440|  6.3855e+01|  6.3855e+01|   -8.399518|  1.1922e-05|    0.094733|
|        2450|  6.3855e+01|  6.3855e+01|   -8.404668|  1.2049e-05|    0.094750|
|        2460|  1.1034e+01|  1.1034e+01|   -8.405092|  1.2088e-05|    0.094765|
|        2470|  6.8320e+01|  6.8320e+01|   -8.405231|  1.1699e-05|    0.094770|
|        2480|  6.8320e+01|  6.8320e+01|   -8.400035|  1.1934e-05|    0.094788|
|        2490|  6.8320e+01|  6.8320e+01|   -8.397992|  1.2322e-05|    0.094804|
|        2500|  6.8320e+01|  6.8320e+01|   -8.396928|  1.2731e-05|    0.094820|
|        2510|  2.4480e+01|  2.4480e+01|   -8.400365|  1.2631e-05|    0.094827|
|        2520|  1.2631e+01|  1.2631e+01|   -8.400261|  1.2377e-05|    0.094833|
|        2530|  6.5175e+01|  6.5175e+01|   -8.401104|  1.2452e-05|    0.094840|
|        2540|  6.5175e+01|  6.5175e+01|   -8.405567|  1.2802e-05|    0.094855|
|        2550|  6.5175e+01|  6.5175e+01|   -8.415337|  1.2936e-05|    0.094868|
|        2560|  6.5175e+01|  6.5175e+01|   -8.427794|  1.3234e-05|    0.094883|
|        2570|  6.5175e+01|  6.5175e+01|   -8.442822|  1.2896e-05|    0.094898|
|        2580|  6.5175e+01|  6.5175e+01|   -8.461602|  1.2599e-05|    0.094910|
|        2590|  6.5175e+01|  6.5175e+01|   -8.484610|  1.2677e-05|    0.094922|
|        2600|  7.8210e+00|  7.8210e+00|   -8.510953|  1.2756e-05|    0.094934|
+-----------------------------------------------------------------------+
|        File Writing Summary       |              Filename             |
+-----------------------------------------------------------------------+
|SU2 binary restart                 |restart_flow_G6.dat                |
|Paraview                           |flow_G6.vtu                        |
|Paraview surface                   |surface_flow_G6.vtu                |
+-----------------------------------------------------------------------+
+-----------------------------------------------------------------------------+
|  Inner_Iter|     Min CFL|     Max CFL|      rms[P]|  Cauchy[CD]|          CD|
+-----------------------------------------------------------------------------+
|        2610|  4.8426e+01|  4.8426e+01|   -8.521475|  1.2556e-05|    0.094937|
|        2620|  2.4987e+01|  2.4987e+01|   -8.533690|  1.2063e-05|    0.094942|
|        2630|  6.2175e+01|  6.2175e+01|   -8.552132|  1.1835e-05|    0.094951|
|        2640|  6.2175e+01|  6.2175e+01|   -8.584472|  1.1452e-05|    0.094962|
|        2650|  6.2175e+01|  6.2175e+01|   -8.619866|  1.1681e-05|    0.094974|
|        2660|  7.4609e+00|  7.4609e+00|   -8.657434|  1.1763e-05|    0.094985|
|        2670|  4.6196e+01|  4.6196e+01|   -8.670124|  1.1423e-05|    0.094988|
|        2680|  2.3836e+01|  2.3836e+01|   -8.686259|  1.1041e-05|    0.094993|
|        2690|  5.9312e+01|  5.9312e+01|   -8.709975|  1.0752e-05|    0.095002|
|        2700|  5.9312e+01|  5.9312e+01|   -8.745202|  1.0403e-05|    0.095010|
|        2710|  5.9312e+01|  5.9312e+01|   -8.777923|  1.0218e-05|    0.095020|
|        2720|  5.9312e+01|  5.9312e+01|   -8.805894|  1.0465e-05|    0.095031|
|        2730|  5.9312e+01|  5.9312e+01|   -8.826145|  1.0167e-05|    0.095042|
|        2740|  5.9312e+01|  5.9312e+01|   -8.836905|  9.9114e-06|    0.095052|
|        2750|  5.9312e+01|  5.9312e+01|   -8.838479|  9.6491e-06|    0.095062|
|        2760|  5.9312e+01|  5.9312e+01|   -8.832867|  9.7882e-06|    0.095072|
|        2770|  5.9312e+01|  5.9312e+01|   -8.823594|  9.9249e-06|    0.095081|
|        2780|  5.9312e+01|  5.9312e+01|   -8.813497|  1.0036e-05|    0.095091|
|        2790|  5.9312e+01|  5.9312e+01|   -8.803528|  9.8263e-06|    0.095101|
|        2800|  5.9312e+01|  5.9312e+01|   -8.794337|  9.6965e-06|    0.095111|
+-----------------------------------------------------------------------+
|        File Writing Summary       |              Filename             |
+-----------------------------------------------------------------------+
|SU2 binary restart                 |restart_flow_G6.dat                |
|Paraview                           |flow_G6.vtu                        |
|Paraview surface                   |surface_flow_G6.vtu                |
+-----------------------------------------------------------------------+
+-----------------------------------------------------------------------------+
|  Inner_Iter|     Min CFL|     Max CFL|      rms[P]|  Cauchy[CD]|          CD|
+-----------------------------------------------------------------------------+
|        2810|  5.9312e+01|  5.9312e+01|   -8.787563|  9.4995e-06|    0.095121|
|        2820|  5.9312e+01|  5.9312e+01|   -8.784594|  9.3080e-06|    0.095130|
|        2830|  5.9312e+01|  5.9312e+01|   -8.785145|  9.1872e-06|    0.095140|
|        2840|  3.0604e+01|  3.0604e+01|   -8.789157|  8.8134e-06|    0.095143|
|        2850|  1.5791e+01|  1.5791e+01|   -8.789928|  8.5223e-06|    0.095147|
|        2860|  5.6582e+01|  5.6582e+01|   -8.790551|  8.6647e-06|    0.095153|
|        2870|  5.6582e+01|  5.6582e+01|   -8.796975|  8.8172e-06|    0.095163|
|        2880|  5.6582e+01|  5.6582e+01|   -8.807383|  8.8203e-06|    0.095172|
|        2890|  5.6582e+01|  5.6582e+01|   -8.820951|  8.7849e-06|    0.095181|
|        2900|  2.0274e+01|  2.0274e+01|   -8.831286|  8.4845e-06|    0.095186|
|        2910|  1.0461e+01|  1.0461e+01|   -8.839053|  8.2127e-06|    0.095190|
|        2920|  5.3977e+01|  5.3977e+01|   -8.845812|  8.2810e-06|    0.095195|
|        2930|  5.3977e+01|  5.3977e+01|   -8.860459|  8.4400e-06|    0.095204|
|        2940|  5.3977e+01|  5.3977e+01|   -8.879049|  8.4464e-06|    0.095213|
|        2950|  7.7726e+00|  7.7726e+00|   -8.897866|  8.3929e-06|    0.095220|
|        2960|  4.8126e+01|  4.8126e+01|   -8.906003|  8.1309e-06|    0.095223|
|        2970|  2.4832e+01|  2.4832e+01|   -8.914588|  7.8363e-06|    0.095227|
|        2980|  5.1492e+01|  5.1492e+01|   -8.928531|  7.7250e-06|    0.095235|
|        2990|  5.1492e+01|  5.1492e+01|   -8.948899|  7.6822e-06|    0.095244|
|        3000|  5.1492e+01|  5.1492e+01|   -8.968894|  7.6316e-06|    0.095253|
+-----------------------------------------------------------------------+
|        File Writing Summary       |              Filename             |
+-----------------------------------------------------------------------+
|SU2 binary restart                 |restart_flow_G6.dat                |
|Paraview                           |flow_G6.vtu                        |
|Paraview surface                   |surface_flow_G6.vtu                |
+-----------------------------------------------------------------------+
+-----------------------------------------------------------------------------+
|  Inner_Iter|     Min CFL|     Max CFL|      rms[P]|  Cauchy[CD]|          CD|
+-----------------------------------------------------------------------------+
|        3010|  6.1790e+00|  6.1790e+00|   -8.988577|  7.5619e-06|    0.095261|
|        3020|  3.8259e+01|  3.8259e+01|   -8.996470|  7.2891e-06|    0.095263|
|        3030|  1.9741e+01|  1.9741e+01|   -9.004755|  7.0623e-06|    0.095267|
|        3040|  4.9121e+01|  4.9121e+01|   -9.015895|  6.9493e-06|    0.095274|
|        3050|  4.9121e+01|  4.9121e+01|   -9.032546|  6.8795e-06|    0.095283|
|        3060|  4.9121e+01|  4.9121e+01|   -9.048213|  6.8036e-06|    0.095291|
|        3070|  4.9121e+01|  4.9121e+01|   -9.062456|  6.7581e-06|    0.095299|
|        3080|  4.9121e+01|  4.9121e+01|   -9.075582|  6.7317e-06|    0.095308|
|        3090|  4.9121e+01|  4.9121e+01|   -9.087357|  6.9739e-06|    0.095317|
|        3100|  4.9121e+01|  4.9121e+01|   -9.096690|  7.1455e-06|    0.095326|
|        3110|  4.9121e+01|  4.9121e+01|   -9.104264|  7.2293e-06|    0.095334|
|        3120|  4.9121e+01|  4.9121e+01|   -9.110776|  7.1894e-06|    0.095342|
|        3130|  4.9121e+01|  4.9121e+01|   -9.116595|  7.1685e-06|    0.095351|
|        3140|  4.9121e+01|  4.9121e+01|   -9.121656|  7.1204e-06|    0.095359|
|        3150|  4.9121e+01|  4.9121e+01|   -9.125786|  7.2844e-06|    0.095368|
|        3160|  4.9121e+01|  4.9121e+01|   -9.129369|  7.4375e-06|    0.095376|
|        3170|  4.9121e+01|  4.9121e+01|   -9.133022|  7.5899e-06|    0.095385|
|        3180|  4.9121e+01|  4.9121e+01|   -9.137203|  7.5609e-06|    0.095393|
|        3190|  4.9121e+01|  4.9121e+01|   -9.141968|  7.5561e-06|    0.095402|
|        3200|  4.9121e+01|  4.9121e+01|   -9.147211|  7.5856e-06|    0.095410|
+-----------------------------------------------------------------------+
|        File Writing Summary       |              Filename             |
+-----------------------------------------------------------------------+
|SU2 binary restart                 |restart_flow_G6.dat                |
|Paraview                           |flow_G6.vtu                        |
|Paraview surface                   |surface_flow_G6.vtu                |
+-----------------------------------------------------------------------+
+-----------------------------------------------------------------------------+
|  Inner_Iter|     Min CFL|     Max CFL|      rms[P]|  Cauchy[CD]|          CD|
+-----------------------------------------------------------------------------+
|        3210|  4.9121e+01|  4.9121e+01|   -9.153019|  7.7844e-06|    0.095418|
|        3220|  4.9121e+01|  4.9121e+01|   -9.159769|  7.9659e-06|    0.095426|
|        3230|  1.4667e+01|  1.4667e+01|   -9.166874|  7.8151e-06|    0.095431|
|        3240|  7.5681e+00|  7.5681e+00|   -9.171239|  7.6266e-06|    0.095435|
|        3250|  4.6860e+01|  4.6860e+01|   -9.175000|  7.4184e-06|    0.095438|
|        3260|  4.6860e+01|  4.6860e+01|   -9.182080|  7.4035e-06|    0.095446|
|        3270|  4.6860e+01|  4.6860e+01|   -9.193006|  7.6005e-06|    0.095453|
|        3280|  4.6860e+01|  4.6860e+01|   -9.204498|  7.7560e-06|    0.095461|
|        3290|  4.6860e+01|  4.6860e+01|   -9.217043|  7.7838e-06|    0.095469|
|        3300|  4.6860e+01|  4.6860e+01|   -9.230617|  7.7566e-06|    0.095477|
|        3310|  4.6860e+01|  4.6860e+01|   -9.245440|  7.7464e-06|    0.095484|
|        3320|  1.6791e+01|  1.6791e+01|   -9.255996|  7.5413e-06|    0.095488|
|        3330|  8.6636e+00|  8.6636e+00|   -9.264049|  7.3322e-06|    0.095491|
|        3340|  4.4702e+01|  4.4702e+01|   -9.269747|  7.1208e-06|    0.095495|
|        3350|  4.4702e+01|  4.4702e+01|   -9.282175|  7.0688e-06|    0.095502|
|        3360|  4.4702e+01|  4.4702e+01|   -9.296884|  7.0232e-06|    0.095509|
|        3370|  4.4702e+01|  4.4702e+01|   -9.311225|  6.9670e-06|    0.095517|
|        3380|  4.4702e+01|  4.4702e+01|   -9.325195|  6.9065e-06|    0.095524|
|        3390|  4.4702e+01|  4.4702e+01|   -9.338394|  6.8514e-06|    0.095531|
|        3400|  7.7246e+00|  7.7246e+00|   -9.350698|  6.7285e-06|    0.095536|
+-----------------------------------------------------------------------+
|        File Writing Summary       |              Filename             |
+-----------------------------------------------------------------------+
|SU2 binary restart                 |restart_flow_G6.dat                |
|Paraview                           |flow_G6.vtu                        |
|Paraview surface                   |surface_flow_G6.vtu                |
+-----------------------------------------------------------------------+
+-----------------------------------------------------------------------------+
|  Inner_Iter|     Min CFL|     Max CFL|      rms[P]|  Cauchy[CD]|          CD|
+-----------------------------------------------------------------------------+
|        3410|  4.7829e+01|  4.7829e+01|   -9.355649|  6.5194e-06|    0.095539|
|        3420|  2.4678e+01|  2.4678e+01|   -9.360480|  6.2750e-06|    0.095542|
|        3430|  4.2644e+01|  4.2644e+01|   -9.364823|  6.1801e-06|    0.095548|
|        3440|  4.2644e+01|  4.2644e+01|   -9.372233|  6.1108e-06|    0.095554|
|        3450|  4.2644e+01|  4.2644e+01|   -9.378499|  6.0423e-06|    0.095561|
|        3460|  4.2644e+01|  4.2644e+01|   -9.383547|  5.9752e-06|    0.095567|
|        3470|  4.2644e+01|  4.2644e+01|   -9.387403|  5.9071e-06|    0.095574|
|        3480|  4.2644e+01|  4.2644e+01|   -9.390358|  6.0039e-06|    0.095581|
|        3490|  4.2644e+01|  4.2644e+01|   -9.392099|  6.1040e-06|    0.095587|
|        3500|  4.2644e+01|  4.2644e+01|   -9.392814|  6.2345e-06|    0.095594|
|        3510|  4.2644e+01|  4.2644e+01|   -9.393069|  6.1830e-06|    0.095600|
|        3520|  4.2644e+01|  4.2644e+01|   -9.393178|  6.1356e-06|    0.095607|
|        3530|  4.2644e+01|  4.2644e+01|   -9.393163|  6.0875e-06|    0.095613|
|        3540|  4.2644e+01|  4.2644e+01|   -9.392853|  6.0320e-06|    0.095620|
|        3550|  4.2644e+01|  4.2644e+01|   -9.392285|  5.9746e-06|    0.095626|
|        3560|  4.2644e+01|  4.2644e+01|   -9.391737|  5.9188e-06|    0.095632|
|        3570|  4.2644e+01|  4.2644e+01|   -9.391477|  6.0421e-06|    0.095639|
|        3580|  4.2644e+01|  4.2644e+01|   -9.391777|  6.1506e-06|    0.095645|
|        3590|  4.2644e+01|  4.2644e+01|   -9.392757|  6.2610e-06|    0.095652|
|        3600|  4.2644e+01|  4.2644e+01|   -9.394217|  6.2262e-06|    0.095658|
+-----------------------------------------------------------------------+
|        File Writing Summary       |              Filename             |
+-----------------------------------------------------------------------+
|SU2 binary restart                 |restart_flow_G6.dat                |
|Paraview                           |flow_G6.vtu                        |
|Paraview surface                   |surface_flow_G6.vtu                |
+-----------------------------------------------------------------------+
+-----------------------------------------------------------------------------+
|  Inner_Iter|     Min CFL|     Max CFL|      rms[P]|  Cauchy[CD]|          CD|
+-----------------------------------------------------------------------------+
|        3610|  4.2644e+01|  4.2644e+01|   -9.395900|  6.1920e-06|    0.095664|
|        3620|  4.2644e+01|  4.2644e+01|   -9.397680|  6.1596e-06|    0.095670|
|        3630|  4.2644e+01|  4.2644e+01|   -9.399579|  6.1256e-06|    0.095677|
|        3640|  4.2644e+01|  4.2644e+01|   -9.401772|  6.0906e-06|    0.095683|
|        3650|  1.8336e+01|  1.8336e+01|   -9.405419|  5.9707e-06|    0.095685|
|        3660|  9.4611e+00|  9.4611e+00|   -9.406909|  5.9628e-06|    0.095688|
|        3670|  4.0681e+01|  4.0681e+01|   -9.407407|  6.0058e-06|    0.095692|
|        3680|  4.0681e+01|  4.0681e+01|   -9.409436|  5.9971e-06|    0.095698|
|        3690|  4.0681e+01|  4.0681e+01|   -9.413336|  5.9666e-06|    0.095704|
|        3700|  4.0681e+01|  4.0681e+01|   -9.417668|  5.9384e-06|    0.095709|
|        3710|  4.0681e+01|  4.0681e+01|   -9.421919|  5.9110e-06|    0.095715|
|        3720|  4.0681e+01|  4.0681e+01|   -9.426400|  5.8830e-06|    0.095721|
|        3730|  4.0681e+01|  4.0681e+01|   -9.431311|  5.8546e-06|    0.095727|
|        3740|  4.0681e+01|  4.0681e+01|   -9.436197|  5.8245e-06|    0.095733|
|        3750|  4.0681e+01|  4.0681e+01|   -9.441202|  5.7929e-06|    0.095739|
|        3760|  4.0681e+01|  4.0681e+01|   -9.446540|  5.7620e-06|    0.095744|
|        3770|  4.0681e+01|  4.0681e+01|   -9.452143|  5.7327e-06|    0.095750|
|        3780|  4.0681e+01|  4.0681e+01|   -9.457849|  5.7046e-06|    0.095756|
|        3790|  4.0681e+01|  4.0681e+01|   -9.463552|  5.6774e-06|    0.095762|
|        3800|  4.0681e+01|  4.0681e+01|   -9.469225|  5.6506e-06|    0.095767|
+-----------------------------------------------------------------------+
|        File Writing Summary       |              Filename             |
+-----------------------------------------------------------------------+
|SU2 binary restart                 |restart_flow_G6.dat                |
|Paraview                           |flow_G6.vtu                        |
|Paraview surface                   |surface_flow_G6.vtu                |
+-----------------------------------------------------------------------+
+-----------------------------------------------------------------------------+
|  Inner_Iter|     Min CFL|     Max CFL|      rms[P]|  Cauchy[CD]|          CD|
+-----------------------------------------------------------------------------+
|        3810|  4.0681e+01|  4.0681e+01|   -9.474879|  5.6234e-06|    0.095773|
|        3820|  4.0681e+01|  4.0681e+01|   -9.480535|  5.5947e-06|    0.095779|
|        3830|  4.0681e+01|  4.0681e+01|   -9.486202|  5.5647e-06|    0.095784|
|        3840|  4.0681e+01|  4.0681e+01|   -9.491832|  5.5344e-06|    0.095790|
|        3850|  7.0297e+00|  7.0297e+00|   -9.497942|  5.4460e-06|    0.095794|
|        3860|  4.3526e+01|  4.3526e+01|   -9.501033|  5.2942e-06|    0.095797|
|        3870|  2.2458e+01|  2.2458e+01|   -9.503686|  5.1178e-06|    0.095798|
|        3880|  1.1588e+01|  1.1588e+01|   -9.505747|  4.9779e-06|    0.095801|
|        3890|  5.9792e+00|  5.9792e+00|   -9.508154|  4.8369e-06|    0.095804|
|        3900|  3.7022e+01|  3.7022e+01|   -9.510426|  4.8296e-06|    0.095806|
|        3910|  1.9102e+01|  1.9102e+01|   -9.512471|  4.7950e-06|    0.095808|
|        3920|  3.9611e+01|  3.9611e+01|   -9.513579|  4.8393e-06|    0.095813|
|        3930|  3.9611e+01|  3.9611e+01|   -9.518105|  4.8150e-06|    0.095818|
|        3940|  3.9611e+01|  3.9611e+01|   -9.522876|  4.7922e-06|    0.095823|
|        3950|  3.9611e+01|  3.9611e+01|   -9.527534|  4.7717e-06|    0.095829|
|        3960|  3.9611e+01|  3.9611e+01|   -9.532252|  4.7505e-06|    0.095834|
|        3970|  3.9611e+01|  3.9611e+01|   -9.536869|  4.7282e-06|    0.095839|
|        3980|  3.9611e+01|  3.9611e+01|   -9.541261|  4.7048e-06|    0.095845|
|        3990|  3.9611e+01|  3.9611e+01|   -9.545344|  4.6801e-06|    0.095850|
|        4000|  3.9611e+01|  3.9611e+01|   -9.549409|  4.6551e-06|    0.095855|
+-----------------------------------------------------------------------+
|        File Writing Summary       |              Filename             |
+-----------------------------------------------------------------------+
|SU2 binary restart                 |restart_flow_G6.dat                |
|Paraview                           |flow_G6.vtu                        |
|Paraview surface                   |surface_flow_G6.vtu                |
+-----------------------------------------------------------------------+
+-----------------------------------------------------------------------------+
|  Inner_Iter|     Min CFL|     Max CFL|      rms[P]|  Cauchy[CD]|          CD|
+-----------------------------------------------------------------------------+
|        4010|  3.9611e+01|  3.9611e+01|   -9.553618|  4.6305e-06|    0.095860|
|        4020|  3.9611e+01|  3.9611e+01|   -9.557892|  4.6052e-06|    0.095865|
|        4030|  3.9611e+01|  3.9611e+01|   -9.562080|  4.5791e-06|    0.095870|
|        4040|  3.9611e+01|  3.9611e+01|   -9.566193|  4.5534e-06|    0.095875|
|        4050|  3.9611e+01|  3.9611e+01|   -9.570355|  4.5288e-06|    0.095881|
|        4060|  3.9611e+01|  3.9611e+01|   -9.574693|  4.5048e-06|    0.095886|
|        4070|  3.9611e+01|  3.9611e+01|   -9.579197|  4.4803e-06|    0.095891|
|        4080|  3.9611e+01|  3.9611e+01|   -9.583688|  4.4550e-06|    0.095896|
|        4090|  3.9611e+01|  3.9611e+01|   -9.587965|  4.4291e-06|    0.095901|
|        4100|  3.9611e+01|  3.9611e+01|   -9.591963|  4.4620e-06|    0.095906|
|        4110|  3.9611e+01|  3.9611e+01|   -9.595823|  4.5588e-06|    0.095911|
|        4120|  3.9611e+01|  3.9611e+01|   -9.599761|  4.6805e-06|    0.095915|
|        4130|  3.9611e+01|  3.9611e+01|   -9.603856|  4.7655e-06|    0.095920|
|        4140|  3.9611e+01|  3.9611e+01|   -9.608034|  4.8514e-06|    0.095925|
|        4150|  3.9611e+01|  3.9611e+01|   -9.612181|  4.9614e-06|    0.095930|
|        4160|  3.9611e+01|  3.9611e+01|   -9.616230|  5.0706e-06|    0.095935|
|        4170|  3.9611e+01|  3.9611e+01|   -9.620170|  5.0795e-06|    0.095940|
|        4180|  3.9611e+01|  3.9611e+01|   -9.623991|  5.0574e-06|    0.095944|
|        4190|  3.9611e+01|  3.9611e+01|   -9.627669|  5.0341e-06|    0.095949|
|        4200|  3.9611e+01|  3.9611e+01|   -9.631194|  5.0097e-06|    0.095954|
+-----------------------------------------------------------------------+
|        File Writing Summary       |              Filename             |
+-----------------------------------------------------------------------+
|SU2 binary restart                 |restart_flow_G6.dat                |
|Paraview                           |flow_G6.vtu                        |
|Paraview surface                   |surface_flow_G6.vtu                |
+-----------------------------------------------------------------------+
+-----------------------------------------------------------------------------+
|  Inner_Iter|     Min CFL|     Max CFL|      rms[P]|  Cauchy[CD]|          CD|
+-----------------------------------------------------------------------------+
|        4210|  3.9611e+01|  3.9611e+01|   -9.634590|  4.9839e-06|    0.095959|
|        4220|  3.9611e+01|  3.9611e+01|   -9.637922|  4.9577e-06|    0.095963|
|        4230|  3.9611e+01|  3.9611e+01|   -9.641260|  4.9322e-06|    0.095968|
|        4240|  3.9611e+01|  3.9611e+01|   -9.644648|  4.9079e-06|    0.095973|
|        4250|  3.9611e+01|  3.9611e+01|   -9.648072|  4.8848e-06|    0.095977|
|        4260|  3.9611e+01|  3.9611e+01|   -9.651476|  4.8623e-06|    0.095982|
|        4270|  3.9611e+01|  3.9611e+01|   -9.654781|  4.8398e-06|    0.095986|
|        4280|  8.2137e+00|  8.2137e+00|   -9.659055|  4.7548e-06|    0.095989|
|        4290|  4.2381e+00|  4.2381e+00|   -9.660572|  4.6490e-06|    0.095992|
|        4300|  2.6241e+01|  2.6241e+01|   -9.662994|  4.4969e-06|    0.095993|
|        4310|  1.3540e+01|  1.3540e+01|   -9.663945|  4.3783e-06|    0.095995|
|        4320|  6.9862e+00|  6.9862e+00|   -9.665317|  4.2616e-06|    0.095997|
|        4330|  4.3257e+01|  4.3257e+01|   -9.666253|  4.1423e-06|    0.095999|
|        4340|  2.2320e+01|  2.2320e+01|   -9.667812|  4.0032e-06|    0.096001|
|        4350|  3.8568e+01|  3.8568e+01|   -9.667029|  3.9626e-06|    0.096005|
|        4360|  3.8568e+01|  3.8568e+01|   -9.669552|  3.9382e-06|    0.096009|
|        4370|  3.8568e+01|  3.8568e+01|   -9.672345|  3.9147e-06|    0.096013|
|        4380|  3.8568e+01|  3.8568e+01|   -9.675201|  3.8917e-06|    0.096018|
|        4390|  3.8568e+01|  3.8568e+01|   -9.678233|  3.8691e-06|    0.096022|
|        4400|  3.8568e+01|  3.8568e+01|   -9.681243|  3.8466e-06|    0.096026|
+-----------------------------------------------------------------------+
|        File Writing Summary       |              Filename             |
+-----------------------------------------------------------------------+
|SU2 binary restart                 |restart_flow_G6.dat                |
|Paraview                           |flow_G6.vtu                        |
|Paraview surface                   |surface_flow_G6.vtu                |
+-----------------------------------------------------------------------+
+-----------------------------------------------------------------------------+
|  Inner_Iter|     Min CFL|     Max CFL|      rms[P]|  Cauchy[CD]|          CD|
+-----------------------------------------------------------------------------+
|        4410|  3.8568e+01|  3.8568e+01|   -9.684030|  3.8241e-06|    0.096030|
|        4420|  3.8568e+01|  3.8568e+01|   -9.686450|  3.8016e-06|    0.096035|
|        4430|  3.8568e+01|  3.8568e+01|   -9.688800|  3.7789e-06|    0.096039|
|        4440|  3.8568e+01|  3.8568e+01|   -9.691278|  3.7561e-06|    0.096043|
|        4450|  3.8568e+01|  3.8568e+01|   -9.693857|  3.7333e-06|    0.096047|
|        4460|  3.8568e+01|  3.8568e+01|   -9.696407|  3.7104e-06|    0.096051|
|        4470|  3.8568e+01|  3.8568e+01|   -9.698883|  3.6876e-06|    0.096055|
|        4480|  3.8568e+01|  3.8568e+01|   -9.701354|  3.6652e-06|    0.096060|
|        4490|  3.8568e+01|  3.8568e+01|   -9.703886|  3.6435e-06|    0.096064|
|        4500|  3.8568e+01|  3.8568e+01|   -9.706508|  3.6223e-06|    0.096068|
|        4510|  3.8568e+01|  3.8568e+01|   -9.709176|  3.6012e-06|    0.096072|
|        4520|  3.8568e+01|  3.8568e+01|   -9.711813|  3.5801e-06|    0.096076|
|        4530|  3.8568e+01|  3.8568e+01|   -9.714355|  3.6216e-06|    0.096080|
|        4540|  3.8568e+01|  3.8568e+01|   -9.716815|  3.6836e-06|    0.096084|
|        4550|  3.8568e+01|  3.8568e+01|   -9.719269|  3.7911e-06|    0.096088|
|        4560|  3.8568e+01|  3.8568e+01|   -9.721772|  3.8645e-06|    0.096092|
|        4570|  3.8568e+01|  3.8568e+01|   -9.724324|  3.9361e-06|    0.096096|
|        4580|  3.8568e+01|  3.8568e+01|   -9.726923|  4.0112e-06|    0.096100|
|        4590|  3.8568e+01|  3.8568e+01|   -9.729595|  4.1071e-06|    0.096103|
|        4600|  3.8568e+01|  3.8568e+01|   -9.732354|  4.1052e-06|    0.096107|
+-----------------------------------------------------------------------+
|        File Writing Summary       |              Filename             |
+-----------------------------------------------------------------------+
|SU2 binary restart                 |restart_flow_G6.dat                |
|Paraview                           |flow_G6.vtu                        |
|Paraview surface                   |surface_flow_G6.vtu                |
+-----------------------------------------------------------------------+
+-----------------------------------------------------------------------------+
|  Inner_Iter|     Min CFL|     Max CFL|      rms[P]|  Cauchy[CD]|          CD|
+-----------------------------------------------------------------------------+
|        4610|  3.8568e+01|  3.8568e+01|   -9.735161|  4.0874e-06|    0.096111|
|        4620|  3.8568e+01|  3.8568e+01|   -9.737926|  4.0690e-06|    0.096115|
|        4630|  3.8568e+01|  3.8568e+01|   -9.740581|  4.0501e-06|    0.096119|
|        4640|  3.8568e+01|  3.8568e+01|   -9.743131|  4.0302e-06|    0.096123|
|        4650|  3.8568e+01|  3.8568e+01|   -9.745653|  4.0099e-06|    0.096126|
|        4660|  3.8568e+01|  3.8568e+01|   -9.748242|  3.9898e-06|    0.096130|
|        4670|  3.8568e+01|  3.8568e+01|   -9.750963|  3.9705e-06|    0.096134|
|        4680|  3.8568e+01|  3.8568e+01|   -9.753817|  3.9521e-06|    0.096138|
|        4690|  3.8568e+01|  3.8568e+01|   -9.756749|  3.9343e-06|    0.096141|
|        4700|  3.8568e+01|  3.8568e+01|   -9.759681|  3.9166e-06|    0.096145|
|        4710|  3.8568e+01|  3.8568e+01|   -9.762548|  3.8991e-06|    0.096149|
|        4720|  3.8568e+01|  3.8568e+01|   -9.765323|  3.8815e-06|    0.096152|
|        4730|  3.8568e+01|  3.8568e+01|   -9.768022|  3.8637e-06|    0.096156|
|        4740|  3.8568e+01|  3.8568e+01|   -9.770688|  3.8452e-06|    0.096160|
|        4750|  3.8568e+01|  3.8568e+01|   -9.773370|  3.8264e-06|    0.096163|
|        4760|  3.8568e+01|  3.8568e+01|   -9.776098|  3.8075e-06|    0.096167|
|        4770|  3.8568e+01|  3.8568e+01|   -9.778880|  3.7890e-06|    0.096171|
|        4780|  3.8568e+01|  3.8568e+01|   -9.781706|  3.7710e-06|    0.096174|
|        4790|  3.8568e+01|  3.8568e+01|   -9.784556|  3.7535e-06|    0.096178|
|        4800|  3.8568e+01|  3.8568e+01|   -9.787409|  3.7363e-06|    0.096181|
+-----------------------------------------------------------------------+
|        File Writing Summary       |              Filename             |
+-----------------------------------------------------------------------+
|SU2 binary restart                 |restart_flow_G6.dat                |
|Paraview                           |flow_G6.vtu                        |
|Paraview surface                   |surface_flow_G6.vtu                |
+-----------------------------------------------------------------------+
+-----------------------------------------------------------------------------+
|  Inner_Iter|     Min CFL|     Max CFL|      rms[P]|  Cauchy[CD]|          CD|
+-----------------------------------------------------------------------------+
|        4810|  3.8568e+01|  3.8568e+01|   -9.790247|  3.7190e-06|    0.096185|
|        4820|  3.8568e+01|  3.8568e+01|   -9.793060|  3.7013e-06|    0.096188|
|        4830|  3.8568e+01|  3.8568e+01|   -9.795848|  3.6831e-06|    0.096192|
|        4840|  3.8568e+01|  3.8568e+01|   -9.798616|  3.6648e-06|    0.096195|
|        4850|  3.8568e+01|  3.8568e+01|   -9.801372|  3.6468e-06|    0.096199|
|        4860|  3.8568e+01|  3.8568e+01|   -9.804128|  3.6292e-06|    0.096202|
|        4870|  3.8568e+01|  3.8568e+01|   -9.806892|  3.6119e-06|    0.096205|
|        4880|  3.8568e+01|  3.8568e+01|   -9.809666|  3.5946e-06|    0.096209|
|        4890|  3.8568e+01|  3.8568e+01|   -9.812448|  3.5773e-06|    0.096212|
|        4900|  3.8568e+01|  3.8568e+01|   -9.815232|  3.5601e-06|    0.096215|
|        4910|  3.8568e+01|  3.8568e+01|   -9.818013|  3.5429e-06|    0.096219|
|        4920|  3.8568e+01|  3.8568e+01|   -9.820784|  3.5257e-06|    0.096222|
|        4930|  3.8568e+01|  3.8568e+01|   -9.823543|  3.5084e-06|    0.096225|
|        4940|  3.8568e+01|  3.8568e+01|   -9.826294|  3.4910e-06|    0.096229|
|        4950|  3.8568e+01|  3.8568e+01|   -9.829044|  3.4737e-06|    0.096232|
|        4960|  3.8568e+01|  3.8568e+01|   -9.831800|  3.4567e-06|    0.096235|
|        4970|  3.8568e+01|  3.8568e+01|   -9.834566|  3.4399e-06|    0.096238|
|        4980|  3.8568e+01|  3.8568e+01|   -9.837337|  3.4231e-06|    0.096242|
|        4990|  3.8568e+01|  3.8568e+01|   -9.840107|  3.4064e-06|    0.096245|
|        5000|  3.8568e+01|  3.8568e+01|   -9.842866|  3.3896e-06|    0.096248|
+-----------------------------------------------------------------------+
|        File Writing Summary       |              Filename             |
+-----------------------------------------------------------------------+
|SU2 binary restart                 |restart_flow_G6.dat                |
|Paraview                           |flow_G6.vtu                        |
|Paraview surface                   |surface_flow_G6.vtu                |
+-----------------------------------------------------------------------+
+-----------------------------------------------------------------------------+
|  Inner_Iter|     Min CFL|     Max CFL|      rms[P]|  Cauchy[CD]|          CD|
+-----------------------------------------------------------------------------+
|        5010|  3.8568e+01|  3.8568e+01|   -9.845610|  3.3729e-06|    0.096251|
|        5020|  3.8568e+01|  3.8568e+01|   -9.848340|  3.3562e-06|    0.096254|
|        5030|  3.8568e+01|  3.8568e+01|   -9.851061|  3.3397e-06|    0.096258|
|        5040|  3.8568e+01|  3.8568e+01|   -9.853778|  3.3232e-06|    0.096261|
|        5050|  3.8568e+01|  3.8568e+01|   -9.856497|  3.3067e-06|    0.096264|
|        5060|  3.8568e+01|  3.8568e+01|   -9.859218|  3.2903e-06|    0.096267|
|        5070|  3.8568e+01|  3.8568e+01|   -9.861937|  3.2740e-06|    0.096270|
|        5080|  3.8568e+01|  3.8568e+01|   -9.864648|  3.2579e-06|    0.096273|
|        5090|  3.8568e+01|  3.8568e+01|   -9.867342|  3.2418e-06|    0.096276|
|        5100|  3.8568e+01|  3.8568e+01|   -9.870014|  3.2258e-06|    0.096279|
|        5110|  3.8568e+01|  3.8568e+01|   -9.872661|  3.2098e-06|    0.096282|
|        5120|  3.8568e+01|  3.8568e+01|   -9.875284|  3.1938e-06|    0.096285|
|        5130|  3.8568e+01|  3.8568e+01|   -9.877889|  3.1780e-06|    0.096288|
|        5140|  3.8568e+01|  3.8568e+01|   -9.880478|  3.1622e-06|    0.096291|
|        5150|  3.8568e+01|  3.8568e+01|   -9.883052|  3.1465e-06|    0.096294|
|        5160|  3.8568e+01|  3.8568e+01|   -9.885611|  3.1310e-06|    0.096297|
|        5170|  3.8568e+01|  3.8568e+01|   -9.888151|  3.1155e-06|    0.096300|
|        5180|  3.8568e+01|  3.8568e+01|   -9.890671|  3.1001e-06|    0.096303|
|        5190|  3.8568e+01|  3.8568e+01|   -9.893168|  3.0849e-06|    0.096306|
|        5200|  3.8568e+01|  3.8568e+01|   -9.895641|  3.0697e-06|    0.096309|
+-----------------------------------------------------------------------+
|        File Writing Summary       |              Filename             |
+-----------------------------------------------------------------------+
|SU2 binary restart                 |restart_flow_G6.dat                |
|Paraview                           |flow_G6.vtu                        |
|Paraview surface                   |surface_flow_G6.vtu                |
+-----------------------------------------------------------------------+
+-----------------------------------------------------------------------------+
|  Inner_Iter|     Min CFL|     Max CFL|      rms[P]|  Cauchy[CD]|          CD|
+-----------------------------------------------------------------------------+
|        5210|  3.8568e+01|  3.8568e+01|   -9.898091|  3.0545e-06|    0.096312|
|        5220|  3.8568e+01|  3.8568e+01|   -9.900519|  3.0394e-06|    0.096314|
|        5230|  3.8568e+01|  3.8568e+01|   -9.902927|  3.0244e-06|    0.096317|
|        5240|  3.8568e+01|  3.8568e+01|   -9.905318|  3.0094e-06|    0.096320|
|        5250|  3.8568e+01|  3.8568e+01|   -9.907695|  2.9946e-06|    0.096323|
|        5260|  3.8568e+01|  3.8568e+01|   -9.910059|  2.9799e-06|    0.096326|
|        5270|  3.8568e+01|  3.8568e+01|   -9.912412|  2.9652e-06|    0.096329|
|        5280|  3.8568e+01|  3.8568e+01|   -9.914756|  2.9507e-06|    0.096331|
|        5290|  3.8568e+01|  3.8568e+01|   -9.917089|  2.9362e-06|    0.096334|
|        5300|  3.8568e+01|  3.8568e+01|   -9.919412|  2.9217e-06|    0.096337|
|        5310|  3.8568e+01|  3.8568e+01|   -9.921724|  2.9074e-06|    0.096340|
|        5320|  3.8568e+01|  3.8568e+01|   -9.924028|  2.8931e-06|    0.096342|
|        5330|  3.8568e+01|  3.8568e+01|   -9.926325|  2.8789e-06|    0.096345|
|        5340|  3.8568e+01|  3.8568e+01|   -9.928617|  2.8647e-06|    0.096348|
|        5350|  3.8568e+01|  3.8568e+01|   -9.930907|  2.8507e-06|    0.096350|
|        5360|  3.8568e+01|  3.8568e+01|   -9.933199|  2.8367e-06|    0.096353|
|        5370|  3.8568e+01|  3.8568e+01|   -9.935493|  2.8229e-06|    0.096356|
|        5380|  3.8568e+01|  3.8568e+01|   -9.937789|  2.8091e-06|    0.096358|
|        5390|  3.8568e+01|  3.8568e+01|   -9.940086|  2.7953e-06|    0.096361|
|        5400|  3.8568e+01|  3.8568e+01|   -9.942385|  2.7816e-06|    0.096364|
+-----------------------------------------------------------------------+
|        File Writing Summary       |              Filename             |
+-----------------------------------------------------------------------+
|SU2 binary restart                 |restart_flow_G6.dat                |
|Paraview                           |flow_G6.vtu                        |
|Paraview surface                   |surface_flow_G6.vtu                |
+-----------------------------------------------------------------------+
+-----------------------------------------------------------------------------+
|  Inner_Iter|     Min CFL|     Max CFL|      rms[P]|  Cauchy[CD]|          CD|
+-----------------------------------------------------------------------------+
|        5410|  3.8568e+01|  3.8568e+01|   -9.944684|  2.7680e-06|    0.096366|
|        5420|  3.8568e+01|  3.8568e+01|   -9.946985|  2.7544e-06|    0.096369|
|        5430|  3.8568e+01|  3.8568e+01|   -9.949289|  2.7409e-06|    0.096371|
|        5440|  3.8568e+01|  3.8568e+01|   -9.951595|  2.7275e-06|    0.096374|
|        5450|  3.8568e+01|  3.8568e+01|   -9.953906|  2.7141e-06|    0.096377|
|        5460|  3.8568e+01|  3.8568e+01|   -9.956221|  2.7008e-06|    0.096379|
|        5470|  3.8568e+01|  3.8568e+01|   -9.958542|  2.6876e-06|    0.096382|
|        5480|  3.8568e+01|  3.8568e+01|   -9.960869|  2.6745e-06|    0.096384|
|        5490|  3.8568e+01|  3.8568e+01|   -9.963200|  2.6614e-06|    0.096387|
|        5500|  3.8568e+01|  3.8568e+01|   -9.965536|  2.6484e-06|    0.096389|
|        5510|  3.8568e+01|  3.8568e+01|   -9.967875|  2.6354e-06|    0.096392|
|        5520|  3.8568e+01|  3.8568e+01|   -9.970217|  2.6225e-06|    0.096394|
|        5530|  3.8568e+01|  3.8568e+01|   -9.972562|  2.6097e-06|    0.096397|
|        5540|  3.8568e+01|  3.8568e+01|   -9.974909|  2.5969e-06|    0.096399|
|        5550|  3.8568e+01|  3.8568e+01|   -9.977259|  2.5842e-06|    0.096401|
|        5560|  3.8568e+01|  3.8568e+01|   -9.979612|  2.5715e-06|    0.096404|
|        5570|  3.8568e+01|  3.8568e+01|   -9.981970|  2.5589e-06|    0.096406|
|        5580|  3.8568e+01|  3.8568e+01|   -9.984332|  2.5464e-06|    0.096409|
|        5590|  3.8568e+01|  3.8568e+01|   -9.986700|  2.5339e-06|    0.096411|
|        5600|  3.8568e+01|  3.8568e+01|   -9.989074|  2.5215e-06|    0.096413|
+-----------------------------------------------------------------------+
|        File Writing Summary       |              Filename             |
+-----------------------------------------------------------------------+
|SU2 binary restart                 |restart_flow_G6.dat                |
|Paraview                           |flow_G6.vtu                        |
|Paraview surface                   |surface_flow_G6.vtu                |
+-----------------------------------------------------------------------+
+-----------------------------------------------------------------------------+
|  Inner_Iter|     Min CFL|     Max CFL|      rms[P]|  Cauchy[CD]|          CD|
+-----------------------------------------------------------------------------+
|        5610|  3.8568e+01|  3.8568e+01|   -9.991451|  2.5092e-06|    0.096416|
|        5620|  3.8568e+01|  3.8568e+01|   -9.993831|  2.4969e-06|    0.096418|
|        5630|  3.8568e+01|  3.8568e+01|   -9.996213|  2.4846e-06|    0.096421|
|        5640|  3.8568e+01|  3.8568e+01|   -9.998596|  2.4724e-06|    0.096423|
|        5650|  3.8568e+01|  3.8568e+01|  -10.000981|  2.4603e-06|    0.096425|
|        5660|  3.8568e+01|  3.8568e+01|  -10.003368|  2.4482e-06|    0.096427|
|        5670|  3.8568e+01|  3.8568e+01|  -10.005756|  2.4362e-06|    0.096430|
|        5680|  3.8568e+01|  3.8568e+01|  -10.008147|  2.4243e-06|    0.096432|
|        5690|  3.8568e+01|  3.8568e+01|  -10.010540|  2.4124e-06|    0.096434|
|        5700|  3.8568e+01|  3.8568e+01|  -10.012934|  2.4005e-06|    0.096437|
|        5710|  3.8568e+01|  3.8568e+01|  -10.015330|  2.3888e-06|    0.096439|
|        5720|  3.8568e+01|  3.8568e+01|  -10.017726|  2.3770e-06|    0.096441|
|        5730|  3.8568e+01|  3.8568e+01|  -10.020122|  2.3653e-06|    0.096443|
|        5740|  3.8568e+01|  3.8568e+01|  -10.022516|  2.3537e-06|    0.096446|
|        5750|  3.8568e+01|  3.8568e+01|  -10.024909|  2.3421e-06|    0.096448|
|        5760|  3.8568e+01|  3.8568e+01|  -10.027302|  2.3305e-06|    0.096450|
|        5770|  3.8568e+01|  3.8568e+01|  -10.029694|  2.3191e-06|    0.096452|
[...]
|        5970|  3.8568e+01|  3.8568e+01|  -10.076595|  2.0999e-06|    0.096494|
|        5980|  3.8568e+01|  3.8568e+01|  -10.078880|  2.0895e-06|    0.096496|
|        5990|  3.8568e+01|  3.8568e+01|  -10.081160|  2.0791e-06|    0.096497|
|        6000|  3.8568e+01|  3.8568e+01|  -10.083435|  2.0688e-06|    0.096499|
+-----------------------------------------------------------------------+
|        File Writing Summary       |              Filename             |
+-----------------------------------------------------------------------+
|SU2 binary restart                 |restart_flow_G6.dat                |
|Paraview                           |flow_G6.vtu                        |
|Paraview surface                   |surface_flow_G6.vtu                |
+-----------------------------------------------------------------------+
+-----------------------------------------------------------------------------+
|  Inner_Iter|     Min CFL|     Max CFL|      rms[P]|  Cauchy[CD]|          CD|
+-----------------------------------------------------------------------------+
|        6010|  3.8568e+01|  3.8568e+01|  -10.085706|  2.0585e-06|    0.096501|
|        6020|  3.8568e+01|  3.8568e+01|  -10.087973|  2.0483e-06|    0.096503|
|        6030|  3.8568e+01|  3.8568e+01|  -10.090237|  2.0381e-06|    0.096505|
|        6040|  3.8568e+01|  3.8568e+01|  -10.092498|  2.0279e-06|    0.096507|
|        6050|  3.8568e+01|  3.8568e+01|  -10.094756|  2.0178e-06|    0.096509|
|        6060|  3.8568e+01|  3.8568e+01|  -10.097012|  2.0078e-06|    0.096511|
|        6070|  3.8568e+01|  3.8568e+01|  -10.099265|  1.9978e-06|    0.096513|
|        6080|  3.8568e+01|  3.8568e+01|  -10.101515|  1.9879e-06|    0.096515|
|        6090|  3.8568e+01|  3.8568e+01|  -10.103762|  1.9780e-06|    0.096517|
|        6100|  3.8568e+01|  3.8568e+01|  -10.106006|  1.9681e-06|    0.096518|
|        6110|  3.8568e+01|  3.8568e+01|  -10.108247|  1.9583e-06|    0.096520|
|        6120|  3.8568e+01|  3.8568e+01|  -10.110486|  1.9486e-06|    0.096522|
|        6130|  3.8568e+01|  3.8568e+01|  -10.112723|  1.9389e-06|    0.096524|
|        6140|  3.8568e+01|  3.8568e+01|  -10.114959|  1.9293e-06|    0.096526|
|        6150|  3.8568e+01|  3.8568e+01|  -10.117194|  1.9197e-06|    0.096528|
|        6160|  3.8568e+01|  3.8568e+01|  -10.119427|  1.9101e-06|    0.096529|
|        6170|  3.8568e+01|  3.8568e+01|  -10.121659|  1.9006e-06|    0.096531|
|        6180|  3.8568e+01|  3.8568e+01|  -10.123889|  1.8912e-06|    0.096533|
|        6190|  3.8568e+01|  3.8568e+01|  -10.126119|  1.8818e-06|    0.096535|
|        6200|  3.8568e+01|  3.8568e+01|  -10.128347|  1.8725e-06|    0.096536|
+-----------------------------------------------------------------------+
|        File Writing Summary       |              Filename             |
+-----------------------------------------------------------------------+
|SU2 binary restart                 |restart_flow_G6.dat                |
|Paraview                           |flow_G6.vtu                        |
|Paraview surface                   |surface_flow_G6.vtu                |
+-----------------------------------------------------------------------+
+-----------------------------------------------------------------------------+
|  Inner_Iter|     Min CFL|     Max CFL|      rms[P]|  Cauchy[CD]|          CD|
+-----------------------------------------------------------------------------+
|        6210|  3.8568e+01|  3.8568e+01|  -10.130574|  1.8632e-06|    0.096538|
|        6220|  3.8568e+01|  3.8568e+01|  -10.132800|  1.8540e-06|    0.096540|
|        6230|  3.8568e+01|  3.8568e+01|  -10.135024|  1.8448e-06|    0.096542|
|        6240|  3.8568e+01|  3.8568e+01|  -10.137248|  1.8356e-06|    0.096543|
|        6250|  3.8568e+01|  3.8568e+01|  -10.139470|  1.8265e-06|    0.096545|
|        6260|  3.8568e+01|  3.8568e+01|  -10.141692|  1.8175e-06|    0.096547|
|        6270|  3.8568e+01|  3.8568e+01|  -10.143914|  1.8085e-06|    0.096549|
|        6280|  3.8568e+01|  3.8568e+01|  -10.146135|  1.7995e-06|    0.096550|
|        6290|  3.8568e+01|  3.8568e+01|  -10.148355|  1.7906e-06|    0.096552|
|        6300|  3.8568e+01|  3.8568e+01|  -10.150575|  1.7818e-06|    0.096554|
|        6310|  3.8568e+01|  3.8568e+01|  -10.152796|  1.7730e-06|    0.096555|
|        6320|  3.8568e+01|  3.8568e+01|  -10.155016|  1.7642e-06|    0.096557|
|        6330|  3.8568e+01|  3.8568e+01|  -10.157236|  1.7555e-06|    0.096559|
|        6340|  3.8568e+01|  3.8568e+01|  -10.159455|  1.7469e-06|    0.096560|
|        6350|  3.8568e+01|  3.8568e+01|  -10.161675|  1.7382e-06|    0.096562|
|        6360|  3.8568e+01|  3.8568e+01|  -10.163895|  1.7297e-06|    0.096563|
|        6370|  3.8568e+01|  3.8568e+01|  -10.166115|  1.7211e-06|    0.096565|
|        6380|  3.8568e+01|  3.8568e+01|  -10.168334|  1.7127e-06|    0.096567|
|        6390|  3.8568e+01|  3.8568e+01|  -10.170554|  1.7042e-06|    0.096568|
|        6400|  3.8568e+01|  3.8568e+01|  -10.172774|  1.6958e-06|    0.096570|
+-----------------------------------------------------------------------+
|        File Writing Summary       |              Filename             |
+-----------------------------------------------------------------------+
|SU2 binary restart                 |restart_flow_G6.dat                |
|Paraview                           |flow_G6.vtu                        |
|Paraview surface                   |surface_flow_G6.vtu                |
+-----------------------------------------------------------------------+
+-----------------------------------------------------------------------------+
|  Inner_Iter|     Min CFL|     Max CFL|      rms[P]|  Cauchy[CD]|          CD|
+-----------------------------------------------------------------------------+
|        6410|  3.8568e+01|  3.8568e+01|  -10.174995|  1.6875e-06|    0.096572|
|        6420|  3.8568e+01|  3.8568e+01|  -10.177215|  1.6792e-06|    0.096573|
|        6430|  3.8568e+01|  3.8568e+01|  -10.179436|  1.6709e-06|    0.096575|
|        6440|  3.8568e+01|  3.8568e+01|  -10.181657|  1.6626e-06|    0.096576|
|        6450|  3.8568e+01|  3.8568e+01|  -10.183878|  1.6545e-06|    0.096578|
|        6460|  3.8568e+01|  3.8568e+01|  -10.186100|  1.6463e-06|    0.096579|
|        6470|  3.8568e+01|  3.8568e+01|  -10.188321|  1.6382e-06|    0.096581|
|        6480|  3.8568e+01|  3.8568e+01|  -10.190542|  1.6301e-06|    0.096582|
|        6490|  3.8568e+01|  3.8568e+01|  -10.192762|  1.6221e-06|    0.096584|
|        6500|  3.8568e+01|  3.8568e+01|  -10.194983|  1.6141e-06|    0.096585|
|        6510|  3.8568e+01|  3.8568e+01|  -10.197202|  1.6061e-06|    0.096587|
|        6520|  3.8568e+01|  3.8568e+01|  -10.199421|  1.5982e-06|    0.096588|
|        6530|  3.8568e+01|  3.8568e+01|  -10.201639|  1.5903e-06|    0.096590|
|        6540|  3.8568e+01|  3.8568e+01|  -10.203857|  1.5825e-06|    0.096591|
|        6550|  3.8568e+01|  3.8568e+01|  -10.206074|  1.5747e-06|    0.096593|
|        6560|  3.8568e+01|  3.8568e+01|  -10.208290|  1.5669e-06|    0.096594|
|        6570|  3.8568e+01|  3.8568e+01|  -10.210506|  1.5592e-06|    0.096596|
|        6580|  3.8568e+01|  3.8568e+01|  -10.212722|  1.5515e-06|    0.096597|
|        6590|  3.8568e+01|  3.8568e+01|  -10.214937|  1.5438e-06|    0.096599|
|        6600|  3.8568e+01|  3.8568e+01|  -10.217151|  1.5362e-06|    0.096600|
+-----------------------------------------------------------------------+
|        File Writing Summary       |              Filename             |
+-----------------------------------------------------------------------+
|SU2 binary restart                 |restart_flow_G6.dat                |
|Paraview                           |flow_G6.vtu                        |
|Paraview surface                   |surface_flow_G6.vtu                |
+-----------------------------------------------------------------------+
+-----------------------------------------------------------------------------+
|  Inner_Iter|     Min CFL|     Max CFL|      rms[P]|  Cauchy[CD]|          CD|
+-----------------------------------------------------------------------------+
|        6610|  3.8568e+01|  3.8568e+01|  -10.219364|  1.5286e-06|    0.096602|
|        6620|  3.8568e+01|  3.8568e+01|  -10.221576|  1.5211e-06|    0.096603|
|        6630|  3.8568e+01|  3.8568e+01|  -10.223787|  1.5136e-06|    0.096605|
|        6640|  3.8568e+01|  3.8568e+01|  -10.225997|  1.5061e-06|    0.096606|
|        6650|  3.8568e+01|  3.8568e+01|  -10.228207|  1.4987e-06|    0.096607|
|        6660|  3.8568e+01|  3.8568e+01|  -10.230415|  1.4912e-06|    0.096609|
|        6670|  3.8568e+01|  3.8568e+01|  -10.232623|  1.4839e-06|    0.096610|
|        6680|  3.8568e+01|  3.8568e+01|  -10.234831|  1.4765e-06|    0.096612|
|        6690|  3.8568e+01|  3.8568e+01|  -10.237037|  1.4693e-06|    0.096613|
|        6700|  3.8568e+01|  3.8568e+01|  -10.239243|  1.4620e-06|    0.096614|
|        6710|  3.8568e+01|  3.8568e+01|  -10.241449|  1.4548e-06|    0.096616|
|        6720|  3.8568e+01|  3.8568e+01|  -10.243653|  1.4476e-06|    0.096617|
|        6730|  3.8568e+01|  3.8568e+01|  -10.245857|  1.4404e-06|    0.096618|
|        6740|  3.8568e+01|  3.8568e+01|  -10.248060|  1.4333e-06|    0.096620|
|        6750|  3.8568e+01|  3.8568e+01|  -10.250262|  1.4262e-06|    0.096621|
|        6760|  3.8568e+01|  3.8568e+01|  -10.252464|  1.4192e-06|    0.096622|
|        6770|  3.8568e+01|  3.8568e+01|  -10.254664|  1.4122e-06|    0.096624|
|        6780|  3.8568e+01|  3.8568e+01|  -10.256864|  1.4052e-06|    0.096625|
|        6790|  3.8568e+01|  3.8568e+01|  -10.259064|  1.3983e-06|    0.096626|
|        6800|  3.8568e+01|  3.8568e+01|  -10.261263|  1.3914e-06|    0.096628|
+-----------------------------------------------------------------------+
|        File Writing Summary       |              Filename             |
+-----------------------------------------------------------------------+
|SU2 binary restart                 |restart_flow_G6.dat                |
|Paraview                           |flow_G6.vtu                        |
|Paraview surface                   |surface_flow_G6.vtu                |
+-----------------------------------------------------------------------+
+-----------------------------------------------------------------------------+
|  Inner_Iter|     Min CFL|     Max CFL|      rms[P]|  Cauchy[CD]|          CD|
+-----------------------------------------------------------------------------+
|        6810|  3.8568e+01|  3.8568e+01|  -10.263461|  1.3845e-06|    0.096629|
|        6820|  3.8568e+01|  3.8568e+01|  -10.265658|  1.3777e-06|    0.096630|
|        6830|  3.8568e+01|  3.8568e+01|  -10.267854|  1.3709e-06|    0.096632|
|        6840|  3.8568e+01|  3.8568e+01|  -10.270049|  1.3641e-06|    0.096633|
|        6850|  3.8568e+01|  3.8568e+01|  -10.272244|  1.3574e-06|    0.096634|
|        6860|  3.8568e+01|  3.8568e+01|  -10.274437|  1.3507e-06|    0.096635|
|        6870|  3.8568e+01|  3.8568e+01|  -10.276630|  1.3440e-06|    0.096637|
|        6880|  3.8568e+01|  3.8568e+01|  -10.278821|  1.3374e-06|    0.096638|
|        6890|  3.8568e+01|  3.8568e+01|  -10.281012|  1.3308e-06|    0.096639|
|        6900|  3.8568e+01|  3.8568e+01|  -10.283201|  1.3242e-06|    0.096640|
|        6910|  3.8568e+01|  3.8568e+01|  -10.285389|  1.3177e-06|    0.096642|
|        6920|  3.8568e+01|  3.8568e+01|  -10.287577|  1.3112e-06|    0.096643|
|        6930|  3.8568e+01|  3.8568e+01|  -10.289763|  1.3047e-06|    0.096644|
|        6940|  3.8568e+01|  3.8568e+01|  -10.291948|  1.2983e-06|    0.096645|
|        6950|  3.8568e+01|  3.8568e+01|  -10.294132|  1.2919e-06|    0.096647|
|        6960|  3.8568e+01|  3.8568e+01|  -10.296315|  1.2855e-06|    0.096648|
|        6970|  3.8568e+01|  3.8568e+01|  -10.298497|  1.2792e-06|    0.096649|
|        6980|  3.8568e+01|  3.8568e+01|  -10.300677|  1.2729e-06|    0.096650|
|        6990|  3.8568e+01|  3.8568e+01|  -10.302856|  1.2666e-06|    0.096651|
|        7000|  3.8568e+01|  3.8568e+01|  -10.305034|  1.2604e-06|    0.096653|
+-----------------------------------------------------------------------+
|        File Writing Summary       |              Filename             |
+-----------------------------------------------------------------------+
|SU2 binary restart                 |restart_flow_G6.dat                |
|Paraview                           |flow_G6.vtu                        |
|Paraview surface                   |surface_flow_G6.vtu                |
+-----------------------------------------------------------------------+
+-----------------------------------------------------------------------------+
|  Inner_Iter|     Min CFL|     Max CFL|      rms[P]|  Cauchy[CD]|          CD|
+-----------------------------------------------------------------------------+
|        7010|  3.8568e+01|  3.8568e+01|  -10.307212|  1.2541e-06|    0.096654|
|        7020|  3.8568e+01|  3.8568e+01|  -10.309390|  1.2480e-06|    0.096655|
|        7030|  3.8568e+01|  3.8568e+01|  -10.311567|  1.2418e-06|    0.096656|
|        7040|  3.8568e+01|  3.8568e+01|  -10.313744|  1.2357e-06|    0.096657|
|        7050|  3.8568e+01|  3.8568e+01|  -10.315921|  1.2296e-06|    0.096658|
|        7060|  3.8568e+01|  3.8568e+01|  -10.318097|  1.2236e-06|    0.096660|
|        7070|  3.8568e+01|  3.8568e+01|  -10.320271|  1.2175e-06|    0.096661|
|        7080|  3.8568e+01|  3.8568e+01|  -10.322445|  1.2116e-06|    0.096662|
|        7090|  3.8568e+01|  3.8568e+01|  -10.324617|  1.2056e-06|    0.096663|
|        7100|  3.8568e+01|  3.8568e+01|  -10.326787|  1.1997e-06|    0.096664|
|        7110|  3.8568e+01|  3.8568e+01|  -10.328957|  1.1938e-06|    0.096665|
|        7120|  3.8568e+01|  3.8568e+01|  -10.331127|  1.1879e-06|    0.096666|
|        7130|  3.8568e+01|  3.8568e+01|  -10.333297|  1.1821e-06|    0.096668|
|        7140|  3.8568e+01|  3.8568e+01|  -10.335467|  1.1763e-06|    0.096669|
|        7150|  3.8568e+01|  3.8568e+01|  -10.337637|  1.1705e-06|    0.096670|
|        7160|  3.8568e+01|  3.8568e+01|  -10.339807|  1.1648e-06|    0.096671|
|        7170|  3.8568e+01|  3.8568e+01|  -10.341976|  1.1590e-06|    0.096672|
|        7180|  3.8568e+01|  3.8568e+01|  -10.344146|  1.1534e-06|    0.096673|
|        7190|  3.8568e+01|  3.8568e+01|  -10.346315|  1.1477e-06|    0.096674|
|        7200|  3.8568e+01|  3.8568e+01|  -10.348483|  1.1421e-06|    0.096675|
+-----------------------------------------------------------------------+
|        File Writing Summary       |              Filename             |
+-----------------------------------------------------------------------+
|SU2 binary restart                 |restart_flow_G6.dat                |
|Paraview                           |flow_G6.vtu                        |
|Paraview surface                   |surface_flow_G6.vtu                |
+-----------------------------------------------------------------------+
+-----------------------------------------------------------------------------+
|  Inner_Iter|     Min CFL|     Max CFL|      rms[P]|  Cauchy[CD]|          CD|
+-----------------------------------------------------------------------------+
|        7210|  3.8568e+01|  3.8568e+01|  -10.350651|  1.1365e-06|    0.096676|
|        7220|  3.8568e+01|  3.8568e+01|  -10.352819|  1.1310e-06|    0.096677|
|        7230|  3.8568e+01|  3.8568e+01|  -10.354986|  1.1254e-06|    0.096678|
|        7240|  3.8568e+01|  3.8568e+01|  -10.357154|  1.1199e-06|    0.096679|
|        7250|  3.8568e+01|  3.8568e+01|  -10.359321|  1.1145e-06|    0.096680|
|        7260|  3.8568e+01|  3.8568e+01|  -10.361489|  1.1090e-06|    0.096682|
|        7270|  3.8568e+01|  3.8568e+01|  -10.363657|  1.1036e-06|    0.096683|
|        7280|  3.8568e+01|  3.8568e+01|  -10.365825|  1.0982e-06|    0.096684|
|        7290|  3.8568e+01|  3.8568e+01|  -10.367993|  1.0929e-06|    0.096685|
|        7300|  3.8568e+01|  3.8568e+01|  -10.370161|  1.0876e-06|    0.096686|
|        7310|  3.8568e+01|  3.8568e+01|  -10.372329|  1.0823e-06|    0.096687|
|        7320|  3.8568e+01|  3.8568e+01|  -10.374497|  1.0770e-06|    0.096688|
|        7330|  3.8568e+01|  3.8568e+01|  -10.376665|  1.0718e-06|    0.096689|
|        7340|  3.8568e+01|  3.8568e+01|  -10.378834|  1.0666e-06|    0.096690|
|        7350|  3.8568e+01|  3.8568e+01|  -10.381003|  1.0614e-06|    0.096691|
|        7360|  3.8568e+01|  3.8568e+01|  -10.383172|  1.0562e-06|    0.096692|
|        7370|  3.8568e+01|  3.8568e+01|  -10.385341|  1.0511e-06|    0.096693|
|        7380|  3.8568e+01|  3.8568e+01|  -10.387511|  1.0460e-06|    0.096694|
|        7390|  3.8568e+01|  3.8568e+01|  -10.389681|  1.0409e-06|    0.096695|
|        7400|  3.8568e+01|  3.8568e+01|  -10.391852|  1.0359e-06|    0.096696|
+-----------------------------------------------------------------------+
|        File Writing Summary       |              Filename             |
+-----------------------------------------------------------------------+
|SU2 binary restart                 |restart_flow_G6.dat                |
|Paraview                           |flow_G6.vtu                        |
|Paraview surface                   |surface_flow_G6.vtu                |
+-----------------------------------------------------------------------+
+-----------------------------------------------------------------------------+
|  Inner_Iter|     Min CFL|     Max CFL|      rms[P]|  Cauchy[CD]|          CD|
+-----------------------------------------------------------------------------+
|        7410|  3.8568e+01|  3.8568e+01|  -10.394022|  1.0309e-06|    0.096697|
|        7420|  3.8568e+01|  3.8568e+01|  -10.396194|  1.0259e-06|    0.096698|
|        7430|  3.8568e+01|  3.8568e+01|  -10.398365|  1.0209e-06|    0.096699|
|        7440|  3.8568e+01|  3.8568e+01|  -10.400537|  1.0160e-06|    0.096700|
|        7450|  3.8568e+01|  3.8568e+01|  -10.402709|  1.0110e-06|    0.096700|
|        7460|  3.8568e+01|  3.8568e+01|  -10.404881|  1.0061e-06|    0.096701|
|        7470|  3.8568e+01|  3.8568e+01|  -10.407053|  1.0013e-06|    0.096702|
|        7473|  3.8568e+01|  3.8568e+01|  -10.407705|  9.9981e-07|    0.096703|

----------------------------- Solver Exit -------------------------------
All convergence criteria satisfied.
+-----------------------------------------------------------------------+
|      Convergence Field     |     Value    |   Criterion  |  Converged |
+-----------------------------------------------------------------------+
|                      rms[P]|      -10.4077|          < -9|         Yes|
|                  Cauchy[CD]|   9.99808e-07|       < 1e-06|         Yes|
+-----------------------------------------------------------------------+
-------------------------------------------------------------------------
+-----------------------------------------------------------------------+
|        File Writing Summary       |              Filename             |
+-----------------------------------------------------------------------+
|SU2 binary restart                 |restart_flow_G6.dat                |
|Paraview                           |flow_G6.vtu                        |
|Paraview surface                   |surface_flow_G6.vtu                |
+-----------------------------------------------------------------------+

------------------------- Solver Postprocessing -------------------------
Deleted CNumerics container.
Deleted CIntegration container.
Deleted CSolver container.
Deleted CIteration container.
Deleted CInterface container.
Deleted CGeometry container.
Deleted CFreeFormDefBox class.
Deleted CSurfaceMovement class.
Deleted CVolumetricMovement class.
Deleted CConfig container.
Deleted nInst container.
Deleted COutput class.
-------------------------------------------------------------------------

------------------------- Exit Success (SU2_CFD) ------------------------

