
-------------------------------------------------------------------------
|    ___ _   _ ___                                                      |
|   / __| | | |_  )   Release 7.4.0 "Blackbird"                         |
|   \__ \ |_| |/ /                                                      |
|   |___/\___//___|   Suite (Computational Fluid Dynamics Code)         |
|                                                                       |
-------------------------------------------------------------------------
| SU2 Project Website: https://su2code.github.io                        |
|                                                                       |
| The SU2 Project is maintained by the SU2 Foundation                   |
| (http://su2foundation.org)                                            |
-------------------------------------------------------------------------
| Copyright 2012-2022, SU2 Contributors                                 |
|                                                                       |
| SU2 is free software; you can redistribute it and/or                  |
| modify it under the terms of the GNU Lesser General Public            |
| License as published by the Free Software Foundation; either          |
| version 2.1 of the License, or (at your option) any later version.    |
|                                                                       |
| SU2 is distributed in the hope that it will be useful,                |
| but WITHOUT ANY WARRANTY; without even the implied warranty of        |
| MERCHANTABILITY or FITNESS FOR A PARTICULAR PURPOSE. See the GNU      |
| Lesser General Public License for more details.                       |
|                                                                       |
| You should have received a copy of the GNU Lesser General Public      |
| License along with SU2. If not, see <http://www.gnu.org/licenses/>.   |
-------------------------------------------------------------------------

Parsing config file for zone 0

----------------- Physical Case Definition ( Zone 0 ) -------------------
Incompressible RANS equations.
Turbulence model: Spalart-Allmaras-noft2
Hybrid RANS/LES: No Hybrid RANS/LES
No restart solution, use the values at infinity (freestream).
Non-Dimensional simulation using intialization values.
The reference area is 1 m^2.
The semi-span will be computed using the max y(3D) value.
The reference length is 1.00898 m.
Reference origin for moment evaluation is (-0.756, 0, 0).
Surface(s) where the force coefficients are evaluated: AIRFOIL.

Surface(s) plotted in the output file: AIRFOIL.
Input mesh file name: ../meshG7/meshG7.su2

--------------- Space Numerical Integration ( Zone 0 ) ------------------
Flux difference splitting (FDS) upwind scheme for the flow inviscid terms.
First order integration in space.
Average of gradients with correction (viscous flow terms).
Average of gradients with correction (viscous turbulence terms).
Gradient for upwind reconstruction: unweighted Least-Squares.
Gradient for viscous and source terms: Green-Gauss.

--------------- Time Numerical Integration  ( Zone 0 ) ------------------
Local time stepping (steady state simulation).
Euler implicit method for the flow equations.
FGMRES is used for solving the linear system.
Using a ILU(0) preconditioning.
Convergence criteria of the linear solver: 1e-06.
Max number of linear iterations: 10.
CFL adaptation. Factor down: 0.1, factor up: 1.2,
                lower limit: 1, upper limit: 1000,
                acceptable linear residual: 0.001.
Courant-Friedrichs-Lewy number:        2
Euler implicit time integration for the turbulence model.

------------------ Convergence Criteria  ( Zone 0 ) ---------------------
Maximum number of solver subiterations: 9999.
Begin convergence monitoring at iteration 10.
Residual minimum value: 1e-9.
Cauchy series min. value: 1e-06.
Number of Cauchy elements: 250.
Begin windowed time average at iteration 0.

-------------------- Output Information ( Zone 0 ) ----------------------
File writing frequency: 
+------------------------------------+
|                     File| Frequency|
+------------------------------------+
|                  RESTART|       200|
|                 PARAVIEW|       200|
|         SURFACE_PARAVIEW|       200|
+------------------------------------+
Writing the convergence history file every 1 inner iterations.
Writing the screen convergence history every 10 inner iterations.
The tabular file format is CSV (.csv).
Convergence history file name: history_G7.
Forces breakdown file name: forces_breakdown.dat.
Surface file name: surface_flow_G7.
Volume file name: flow_G7.
Restart file name: restart_flow_G7.dat.

------------- Config File Boundary Information ( Zone 0 ) ---------------
+-----------------------------------------------------------------------+
|                        Marker Type|                        Marker Name|
+-----------------------------------------------------------------------+
|                          Far-field|                           FARFIELD|
+-----------------------------------------------------------------------+
|                     Heat flux wall|                            AIRFOIL|
+-----------------------------------------------------------------------+

-------------------- Output Preprocessing ( Zone 0 ) --------------------

WARNING: SURFACE_PRESSURE_DROP can only be computed for at least 2 surfaces (outlet, inlet, ...)

Screen output fields: INNER_ITER, MIN_CFL, MAX_CFL, RMS_PRESSURE, CAUCHY_DRAG, DRAG
History output group(s): INNER_ITER, MIN_CFL, MAX_CFL, RMS_RES, LIFT, DRAG, MOMENT_Z, CAUCHY
Convergence field(s): RMS_PRESSURE, DRAG
Warning: No (valid) fields chosen for time convergence monitoring. Time convergence monitoring inactive.
Volume output fields: COORDINATES, SOLUTION, PRIMITIVE, RESIDUAL, MESH_QUALITY

------------------- Geometry Preprocessing ( Zone 0 ) -------------------
Two dimensional problem.
394110 grid points before partitioning.
392644 volume elements before partitioning.
2 surface markers.
898 boundary elements in index 0 (Marker = AIRFOIL).
2034 boundary elements in index 1 (Marker = FARFIELD).
Executing the partitioning functions.
Building the graph adjacency structure.
Calling ParMETIS... graph partitioning complete (4215 edge cuts).
Distributing ParMETIS coloring.
Rebalancing vertices.
Rebalancing volume element connectivity.
Rebalancing markers and surface elements.
402552 vertices including ghost points. 
396853 interior elements including halo cells. 
396853 quadrilaterals.
Establishing MPI communication patterns.
Setting point connectivity.
Renumbering points (Reverse Cuthill McKee Ordering).
Recomputing point connectivity.
Setting element connectivity.
Checking the numerical grid orientation.
All volume elements are correctly orientend.
There has been a re-orientation of 1476 LINE surface elements.
Identifying edges and vertices.
Setting the control volume structure.
Area of the computational grid: 3232.29.
Searching for the closest normal neighbors to the surfaces.
Storing a mapping from global to local point index.
Compute the surface curvature.
Max K: 7881.07. Mean K: 4.02808. Standard deviation K: 145.804.
Checking for periodicity.
Computing mesh quality statistics for the dual control volumes.
+--------------------------------------------------------------+
|           Mesh Quality Metric|        Minimum|        Maximum|
+--------------------------------------------------------------+
|    Orthogonality Angle (deg.)|        74.6076|             90|
|     CV Face Area Aspect Ratio|        1.00003|        52017.2|
|           CV Sub-Volume Ratio|              1|        13.7078|
+--------------------------------------------------------------+
Finding max control volume width.
Communicating number of neighbors.
Wetted area = 2.05979 m.
Area projection in the x-plane = 0.121117 m, y-plane = 1.00885 m.
Max. coordinate in the x-direction = 1.00898 m, y-direction = 0.0759837 m.
Min. coordinate in the x-direction = 3.82704e-07 m, y-direction = -0.0451341 m.
Computing wall distances.

-------------------- Solver Preprocessing ( Zone 0 ) --------------------
Incompressible flow: rho_ref, vel_ref, and temp_ref
are based on the initial values, p_ref = rho_ref*vel_ref^2.
Force coefficients computed using initial values.
The reference area for force coeffs. is 1 m^2.
The reference length for force coeffs. is 1.00898 m.
The pressure is decomposed into thermodynamic and dynamic components.
The initial value of the dynamic pressure is 0.
Mach number: 0.0276747, computed using the Bulk modulus.
For external flows, the initial state is imposed at the far-field.
Angle of attack (deg): 14, computed using the initial velocity.
Side slip angle (deg): 0, computed using the initial velocity.
Reynolds number per meter: 594999, computed using initial values.
Reynolds number is a byproduct of inputs only (not used internally).
SI units only. The grid should be dimensional (meters).
No energy equation.

-- Models:
+------------------------------------------------------------------------------+
|          Viscosity Model|        Conductivity Model|              Fluid Model|
+------------------------------------------------------------------------------+
|       CONSTANT_VISCOSITY|          CONSTANT_PRANDTL|         CONSTANT_DENSITY|
+------------------------------------------------------------------------------+
-- Fluid properties:
+------------------------------------------------------------------------------+
|                  Name|    Dim. value|    Ref. value|      Unit|Non-dim. value|
+------------------------------------------------------------------------------+
|             Viscosity|      1.92e-05|        11.424|   N.s/m^2|   1.68067e-06|
+------------------------------------------------------------------------------+
|        Prandtl (Lam.)|             -|             -|         -|          0.72|
|       Prandtl (Turb.)|             -|             -|         -|           0.9|
+------------------------------------------------------------------------------+
|          Bulk Modulus|        142000|             1|        Pa|        142000|
+------------------------------------------------------------------------------+
-- Initial and free-stream conditions:
+------------------------------------------------------------------------------+
|                  Name|    Dim. value|    Ref. value|      Unit|Non-dim. value|
+------------------------------------------------------------------------------+
|      Dynamic Pressure|             0|       108.756|        Pa|             0|
|        Total Pressure|       54.3781|       108.756|        Pa|           0.5|
|               Density|           1.2|           1.2|    kg/m^3|             1|
|            Velocity-X|        9.2372|       9.51999|       m/s|      0.970296|
|            Velocity-Y|        2.3031|       9.51999|       m/s|      0.241923|
|    Velocity Magnitude|       9.51999|       9.51999|       m/s|             1|
+------------------------------------------------------------------------------+
|             Viscosity|      1.92e-05|        11.424|   N.s/m^2|   1.68067e-06|
|          Conductivity|             -|       3.59312|   W/m^2.K|             -|
|     Turb. Kin. Energy|       1.35945|       90.6301|   m^2/s^2|         0.015|
|     Spec. Dissipation|       8496.58|       9.51999|       1/s|       892.499|
+------------------------------------------------------------------------------+
|           Mach Number|             -|             -|         -|     0.0276747|
|       Reynolds Number|             -|             -|         -|        594999|
+------------------------------------------------------------------------------+
Initialize Jacobian structure (Navier-Stokes). MG level: 0.
Initialize Jacobian structure (SA model).

------------------- Numerics Preprocessing ( Zone 0 ) -------------------

----------------- Integration Preprocessing ( Zone 0 ) ------------------

------------------- Iteration Preprocessing ( Zone 0 ) ------------------
Euler/Navier-Stokes/RANS fluid iteration.

------------------------------ Begin Solver -----------------------------

Simulation Run using the Single-zone Driver
+-----------------------------------------------------------------------------+
|  Inner_Iter|     Min CFL|     Max CFL|      rms[P]|  Cauchy[CD]|          CD|
+-----------------------------------------------------------------------------+
|           0|  2.4000e+00|  2.4000e+00|   -4.453407|  1.0000e+00|    0.663241|
|          10|  1.4860e+01|  1.4860e+01|   -5.184595|  1.1972e-03|    0.893806|
|          20|  7.6675e+00|  7.6675e+00|   -5.361717|  1.2580e-03|    0.880338|
|          30|  3.9563e+00|  3.9563e+00|   -5.313431|  1.4440e-03|    0.840488|
|          40|  2.4496e+01|  2.4496e+01|   -5.266512|  1.6467e-03|    0.799105|
|          50|  1.2639e+01|  1.2639e+01|   -5.231288|  2.1690e-03|    0.702221|
|          60|  6.5217e+00|  6.5217e+00|   -5.200500|  2.9232e-03|    0.582926|
|          70|  4.0381e+01|  4.0381e+01|   -5.174602|  3.6034e-03|    0.492681|
|          80|  2.0836e+01|  2.0836e+01|   -5.168584|  4.3968e-03|    0.405327|
|          90|  1.0751e+01|  1.0751e+01|   -5.235197|  5.8699e-03|    0.283190|
|         100|  5.5471e+00|  5.5471e+00|   -5.288825|  7.9055e-03|    0.172902|
|         110|  3.4346e+01|  3.4346e+01|   -5.305698|  8.8627e-03|    0.136567|
|         120|  1.2307e+01|  1.2307e+01|   -5.323000|  1.0106e-02|    0.100829|
|         130|  6.3501e+00|  6.3501e+00|   -5.339194|  1.1065e-02|    0.076838|
|         140|  3.9318e+01|  3.9318e+01|   -5.342502|  1.1787e-02|    0.058789|
|         150|  2.0287e+01|  2.0287e+01|   -5.346612|  1.3034e-02|    0.027637|
|         160|  5.0481e+01|  5.0481e+01|   -5.350563|  1.5398e-02|   -0.031478|
|         170|  5.0481e+01|  5.0481e+01|   -5.401551|  1.6884e-02|   -0.017418|
|         180|  1.2561e+01|  1.2561e+01|   -5.413891|  2.0591e-02|    0.075242|
|         190|  5.4011e+00|  5.4011e+00|   -5.442470|  2.3951e-02|    0.186940|
|         200|  3.3442e+01|  3.3442e+01|   -5.446468|  2.4809e-02|    0.232310|
+-----------------------------------------------------------------------+
|        File Writing Summary       |              Filename             |
+-----------------------------------------------------------------------+
|SU2 binary restart                 |restart_flow_G7.dat                |
|Paraview                           |flow_G7.vtu                        |
|Paraview surface                   |surface_flow_G7.vtu                |
+-----------------------------------------------------------------------+
+-----------------------------------------------------------------------------+
|  Inner_Iter|     Min CFL|     Max CFL|      rms[P]|  Cauchy[CD]|          CD|
+-----------------------------------------------------------------------------+
|         210|  1.7256e+01|  1.7256e+01|   -5.429650|  2.5617e-02|    0.285366|
|         220|  5.1525e+01|  5.1525e+01|   -5.429292|  2.5982e-02|    0.287870|
|         230|  2.6586e+01|  2.6586e+01|   -5.444123|  2.6554e-02|    0.249926|
|         240|  5.5128e+01|  5.5128e+01|   -5.490243|  2.9024e-02|    0.137527|
|         250|  5.5128e+01|  5.5128e+01|   -5.555861|  3.0665e-02|    0.094966|
|         260|  5.5128e+01|  5.5128e+01|   -5.537099|  3.0792e-02|    0.133090|
|         270|  1.9753e+01|  1.9753e+01|   -5.530613|  3.1127e-02|    0.147061|
|         280|  5.8983e+01|  5.8983e+01|   -5.571604|  3.1065e-02|    0.146645|
|         290|  1.0192e+01|  1.0192e+01|   -5.666466|  3.0954e-02|    0.145746|
|         300|  6.3108e+01|  6.3108e+01|   -5.676038|  3.0600e-02|    0.152031|
|         310|  3.2562e+01|  3.2562e+01|   -5.666833|  3.0010e-02|    0.158404|
|         320|  5.6268e+01|  5.6268e+01|   -5.650798|  2.9531e-02|    0.162586|
|         330|  8.1026e+00|  8.1026e+00|   -5.708136|  2.9380e-02|    0.138661|
|         340|  5.0169e+01|  5.0169e+01|   -5.743633|  2.8261e-02|    0.126974|
|         350|  2.5886e+01|  2.5886e+01|   -5.816296|  2.6608e-02|    0.115491|
|         360|  9.2755e+00|  9.2755e+00|   -5.864918|  2.5829e-02|    0.111002|
|         370|  5.7431e+01|  5.7431e+01|   -5.851133|  2.4711e-02|    0.114521|
|         380|  2.9633e+01|  2.9633e+01|   -5.837263|  2.3986e-02|    0.121486|
|         390|  6.1447e+01|  6.1447e+01|   -5.892270|  2.3829e-02|    0.140052|
|         400|  6.1447e+01|  6.1447e+01|   -6.123352|  2.2820e-02|    0.147944|
+-----------------------------------------------------------------------+
|        File Writing Summary       |              Filename             |
+-----------------------------------------------------------------------+
|SU2 binary restart                 |restart_flow_G7.dat                |
|Paraview                           |flow_G7.vtu                        |
|Paraview surface                   |surface_flow_G7.vtu                |
+-----------------------------------------------------------------------+
+-----------------------------------------------------------------------------+
|  Inner_Iter|     Min CFL|     Max CFL|      rms[P]|  Cauchy[CD]|          CD|
+-----------------------------------------------------------------------------+
|         410|  6.1447e+01|  6.1447e+01|   -6.153490|  2.0840e-02|    0.134478|
|         420|  6.1447e+01|  6.1447e+01|   -6.205831|  1.9985e-02|    0.114977|
|         430|  1.8348e+01|  1.8348e+01|   -6.321031|  1.6588e-02|    0.106460|
|         440|  6.5745e+01|  6.5745e+01|   -6.358533|  1.3354e-02|    0.103417|
|         450|  2.8269e+01|  2.8269e+01|   -6.335075|  1.2612e-02|    0.106477|
|         460|  1.4586e+01|  1.4586e+01|   -6.309913|  1.2041e-02|    0.113020|
|         470|  7.5261e+00|  7.5261e+00|   -6.318767|  1.1987e-02|    0.122213|
|         480|  4.6600e+01|  4.6600e+01|   -6.358080|  1.1549e-02|    0.126346|
|         490|  2.4045e+01|  2.4045e+01|   -6.444619|  9.1954e-03|    0.130124|
|         500|  1.2406e+01|  1.2406e+01|   -6.584038|  7.6003e-03|    0.131556|
|         510|  6.4015e+01|  6.4015e+01|   -6.635845|  6.3493e-03|    0.129165|
|         520|  9.2181e+00|  9.2181e+00|   -6.582817|  6.3279e-03|    0.117692|
|         530|  5.7076e+01|  5.7076e+01|   -6.571126|  6.3957e-03|    0.112197|
|         540|  2.9450e+01|  2.9450e+01|   -6.565112|  6.4835e-03|    0.107290|
|         550|  1.5196e+01|  1.5196e+01|   -6.567371|  6.4853e-03|    0.102835|
|         560|  6.5338e+01|  6.5338e+01|   -6.596639|  6.3763e-03|    0.102300|
|         570|  1.9510e+01|  1.9510e+01|   -6.689905|  6.2945e-03|    0.105408|
|         580|  1.0067e+01|  1.0067e+01|   -6.762497|  5.8357e-03|    0.110385|
|         590|  6.2330e+01|  6.2330e+01|   -6.744608|  5.6138e-03|    0.114103|
|         600|  6.2330e+01|  6.2330e+01|   -6.623027|  5.3589e-03|    0.117786|
+-----------------------------------------------------------------------+
|        File Writing Summary       |              Filename             |
+-----------------------------------------------------------------------+
|SU2 binary restart                 |restart_flow_G7.dat                |
|Paraview                           |flow_G7.vtu                        |
|Paraview surface                   |surface_flow_G7.vtu                |
+-----------------------------------------------------------------------+
+-----------------------------------------------------------------------------+
|  Inner_Iter|     Min CFL|     Max CFL|      rms[P]|  Cauchy[CD]|          CD|
+-----------------------------------------------------------------------------+
|         610|  6.2330e+01|  6.2330e+01|   -6.654683|  5.3025e-03|    0.114249|
|         620|  1.5510e+01|  1.5510e+01|   -6.691261|  5.3278e-03|    0.110061|
|         630|  6.6689e+01|  6.6689e+01|   -6.655537|  5.2282e-03|    0.106404|
|         640|  2.8675e+01|  2.8675e+01|   -6.629306|  4.7475e-03|    0.104198|
|         650|  7.1353e+00|  7.1353e+00|   -6.682733|  4.5592e-03|    0.103202|
|         660|  4.4180e+01|  4.4180e+01|   -6.744993|  4.1946e-03|    0.103701|
|         670|  2.2796e+01|  2.2796e+01|   -6.849479|  3.6229e-03|    0.105267|
|         680|  6.8068e+01|  6.8068e+01|   -6.926875|  3.4110e-03|    0.107876|
|         690|  2.9268e+01|  2.9268e+01|   -6.966291|  3.3085e-03|    0.108493|
|         700|  1.5102e+01|  1.5102e+01|   -7.045685|  3.2075e-03|    0.108184|
|         710|  6.4934e+01|  6.4934e+01|   -7.138299|  3.0365e-03|    0.106403|
|         720|  1.3465e+01|  1.3465e+01|   -7.049908|  2.8521e-03|    0.103085|
|         730|  6.9475e+00|  6.9475e+00|   -6.970450|  2.7973e-03|    0.101097|
|         740|  4.3017e+01|  4.3017e+01|   -6.940945|  2.7091e-03|    0.100361|
|         750|  2.2196e+01|  2.2196e+01|   -6.937118|  2.6891e-03|    0.099721|
|         760|  6.6276e+01|  6.6276e+01|   -6.973722|  2.6368e-03|    0.100135|
|         770|  6.6276e+01|  6.6276e+01|   -7.041172|  2.3489e-03|    0.102318|
|         780|  1.9790e+01|  1.9790e+01|   -7.097806|  2.2020e-03|    0.103474|
|         790|  7.0911e+01|  7.0911e+01|   -7.143480|  2.0387e-03|    0.103710|
|         800|  1.2253e+01|  1.2253e+01|   -7.143259|  1.9361e-03|    0.101976|
+-----------------------------------------------------------------------+
|        File Writing Summary       |              Filename             |
+-----------------------------------------------------------------------+
|SU2 binary restart                 |restart_flow_G7.dat                |
|Paraview                           |flow_G7.vtu                        |
|Paraview surface                   |surface_flow_G7.vtu                |
+-----------------------------------------------------------------------+
+-----------------------------------------------------------------------------+
|  Inner_Iter|     Min CFL|     Max CFL|      rms[P]|  Cauchy[CD]|          CD|
+-----------------------------------------------------------------------------+
|         810|  7.5870e+01|  7.5870e+01|   -7.127246|  1.9362e-03|    0.100591|
|         820|  7.5870e+01|  7.5870e+01|   -7.116364|  1.9105e-03|    0.098247|
|         830|  7.5870e+01|  7.5870e+01|   -7.161754|  1.7570e-03|    0.098724|
|         840|  7.5870e+01|  7.5870e+01|   -7.198786|  1.6970e-03|    0.100531|
|         850|  7.5870e+01|  7.5870e+01|   -7.179153|  1.5988e-03|    0.101242|
|         860|  2.2655e+01|  2.2655e+01|   -7.180807|  1.4943e-03|    0.100798|
|         870|  1.1689e+01|  1.1689e+01|   -7.184211|  1.3715e-03|    0.100120|
|         880|  7.2377e+01|  7.2377e+01|   -7.188969|  1.2579e-03|    0.099576|
|         890|  3.7345e+01|  3.7345e+01|   -7.198635|  1.1912e-03|    0.099143|
|         900|  7.7439e+01|  7.7439e+01|   -7.216024|  1.1542e-03|    0.098883|
|         910|  1.3381e+01|  1.3381e+01|   -7.238691|  1.1557e-03|    0.099402|
|         920|  8.2854e+01|  8.2854e+01|   -7.243390|  1.1107e-03|    0.099773|
|         930|  8.2854e+01|  8.2854e+01|   -7.259126|  1.0302e-03|    0.100208|
|         940|  8.2854e+01|  8.2854e+01|   -7.292156|  1.0184e-03|    0.099932|
|         950|  2.0617e+01|  2.0617e+01|   -7.312297|  1.0153e-03|    0.099627|
|         960|  8.8648e+01|  8.8648e+01|   -7.305266|  9.5519e-04|    0.099467|
|         970|  8.8648e+01|  8.8648e+01|   -7.294877|  8.3162e-04|    0.099489|
|         980|  8.8648e+01|  8.8648e+01|   -7.304657|  7.5687e-04|    0.099565|
|         990|  1.0638e+01|  1.0638e+01|   -7.354614|  7.3327e-04|    0.099424|
|        1000|  6.5867e+01|  6.5867e+01|   -7.378469|  7.1069e-04|    0.099349|
+-----------------------------------------------------------------------+
|        File Writing Summary       |              Filename             |
+-----------------------------------------------------------------------+
|SU2 binary restart                 |restart_flow_G7.dat                |
|Paraview                           |flow_G7.vtu                        |
|Paraview surface                   |surface_flow_G7.vtu                |
+-----------------------------------------------------------------------+
+-----------------------------------------------------------------------------+
|  Inner_Iter|     Min CFL|     Max CFL|      rms[P]|  Cauchy[CD]|          CD|
+-----------------------------------------------------------------------------+
|        1010|  3.3986e+01|  3.3986e+01|   -7.415995|  6.9424e-04|    0.099230|
|        1020|  8.4567e+01|  8.4567e+01|   -7.476959|  6.1672e-04|    0.099014|
|        1030|  8.4567e+01|  8.4567e+01|   -7.560699|  5.8027e-04|    0.098803|
|        1040|  2.5252e+01|  2.5252e+01|   -7.598575|  5.6783e-04|    0.098706|
|        1050|  1.3029e+01|  1.3029e+01|   -7.615464|  5.0454e-04|    0.098600|
|        1060|  8.0674e+01|  8.0674e+01|   -7.618905|  4.5387e-04|    0.098499|
|        1070|  8.0674e+01|  8.0674e+01|   -7.603836|  3.7135e-04|    0.098218|
|        1080|  8.0674e+01|  8.0674e+01|   -7.562075|  3.5159e-04|    0.097950|
|        1090|  1.6729e+01|  1.6729e+01|   -7.532607|  2.8717e-04|    0.097755|
|        1100|  8.6316e+00|  8.6316e+00|   -7.520338|  2.6270e-04|    0.097633|
|        1110|  5.3444e+01|  5.3444e+01|   -7.516085|  2.4771e-04|    0.097568|
|        1120|  2.7576e+01|  2.7576e+01|   -7.512609|  2.2522e-04|    0.097455|
|        1130|  8.2342e+01|  8.2342e+01|   -7.510293|  2.1105e-04|    0.097265|
|        1140|  8.2342e+01|  8.2342e+01|   -7.518089|  2.0442e-04|    0.096998|
|        1150|  8.2342e+01|  8.2342e+01|   -7.533506|  2.0154e-04|    0.096757|
|        1160|  8.2342e+01|  8.2342e+01|   -7.557729|  1.8900e-04|    0.096552|
|        1170|  8.2342e+01|  8.2342e+01|   -7.589811|  1.8125e-04|    0.096375|
|        1180|  1.4229e+01|  1.4229e+01|   -7.621488|  1.6889e-04|    0.096249|
|        1190|  8.8100e+01|  8.8100e+01|   -7.635131|  1.6049e-04|    0.096184|
|        1200|  4.5458e+01|  4.5458e+01|   -7.650442|  1.5044e-04|    0.096130|
+-----------------------------------------------------------------------+
|        File Writing Summary       |              Filename             |
+-----------------------------------------------------------------------+
|SU2 binary restart                 |restart_flow_G7.dat                |
|Paraview                           |flow_G7.vtu                        |
|Paraview surface                   |surface_flow_G7.vtu                |
+-----------------------------------------------------------------------+
+-----------------------------------------------------------------------------+
|  Inner_Iter|     Min CFL|     Max CFL|      rms[P]|  Cauchy[CD]|          CD|
+-----------------------------------------------------------------------------+
|        1210|  7.8551e+01|  7.8551e+01|   -7.679314|  1.4927e-04|    0.096000|
|        1220|  7.8551e+01|  7.8551e+01|   -7.720312|  1.5023e-04|    0.095890|
|        1230|  7.8551e+01|  7.8551e+01|   -7.766429|  1.5039e-04|    0.095805|
|        1240|  7.8551e+00|  7.8551e+00|   -7.815426|  1.4760e-04|    0.095734|
|        1250|  4.8637e+01|  4.8637e+01|   -7.834854|  1.4515e-04|    0.095720|
|        1260|  2.5095e+01|  2.5095e+01|   -7.857582|  1.4134e-04|    0.095697|
|        1270|  7.4935e+01|  7.4935e+01|   -7.887697|  1.3451e-04|    0.095652|
|        1280|  7.4935e+01|  7.4935e+01|   -7.940295|  1.2813e-04|    0.095600|
|        1290|  7.4935e+01|  7.4935e+01|   -7.989339|  1.2546e-04|    0.095570|
|        1300|  7.4935e+01|  7.4935e+01|   -8.017438|  1.2223e-04|    0.095544|
|        1310|  7.4935e+01|  7.4935e+01|   -8.012662|  1.1902e-04|    0.095523|
|        1320|  7.4935e+01|  7.4935e+01|   -7.982416|  1.0870e-04|    0.095501|
|        1330|  7.4935e+01|  7.4935e+01|   -7.942856|  9.8873e-05|    0.095478|
|        1340|  7.4935e+01|  7.4935e+01|   -7.908335|  9.1655e-05|    0.095464|
|        1350|  7.4935e+01|  7.4935e+01|   -7.885729|  8.7343e-05|    0.095450|
|        1360|  7.4935e+01|  7.4935e+01|   -7.877208|  8.5375e-05|    0.095434|
|        1370|  7.4935e+01|  7.4935e+01|   -7.884158|  8.1547e-05|    0.095416|
|        1380|  7.4935e+01|  7.4935e+01|   -7.906318|  7.4689e-05|    0.095398|
|        1390|  7.4935e+01|  7.4935e+01|   -7.941512|  6.4718e-05|    0.095381|
|        1400|  1.5538e+01|  1.5538e+01|   -7.976644|  5.5514e-05|    0.095369|
+-----------------------------------------------------------------------+
|        File Writing Summary       |              Filename             |
+-----------------------------------------------------------------------+
|SU2 binary restart                 |restart_flow_G7.dat                |
|Paraview                           |flow_G7.vtu                        |
|Paraview surface                   |surface_flow_G7.vtu                |
+-----------------------------------------------------------------------+
+-----------------------------------------------------------------------------+
|  Inner_Iter|     Min CFL|     Max CFL|      rms[P]|  Cauchy[CD]|          CD|
+-----------------------------------------------------------------------------+
|        1410|  8.0175e+00|  8.0175e+00|   -7.997517|  4.7505e-05|    0.095364|
|        1420|  4.9642e+01|  4.9642e+01|   -8.016675|  4.0663e-05|    0.095358|
|        1430|  7.1485e+01|  7.1485e+01|   -8.060785|  3.6507e-05|    0.095337|
|        1440|  1.2353e+01|  1.2353e+01|   -8.105463|  3.4421e-05|    0.095323|
|        1450|  7.6484e+01|  7.6484e+01|   -8.124453|  3.2446e-05|    0.095319|
|        1460|  3.9464e+01|  3.9464e+01|   -8.143149|  2.7450e-05|    0.095313|
|        1470|  6.8194e+01|  6.8194e+01|   -8.176263|  2.3793e-05|    0.095295|
|        1480|  6.8194e+01|  6.8194e+01|   -8.211171|  2.1013e-05|    0.095280|
|        1490|  6.8194e+01|  6.8194e+01|   -8.235740|  1.8650e-05|    0.095268|
|        1500|  3.5187e+01|  3.5187e+01|   -8.245630|  1.8219e-05|    0.095265|
|        1510|  1.8155e+01|  1.8155e+01|   -8.252616|  1.7458e-05|    0.095261|
|        1520|  6.5054e+01|  6.5054e+01|   -8.258037|  1.6011e-05|    0.095251|
|        1530|  6.5054e+01|  6.5054e+01|   -8.269719|  1.4390e-05|    0.095240|
|        1540|  6.5054e+01|  6.5054e+01|   -8.276273|  1.3478e-05|    0.095233|
|        1550|  6.5054e+01|  6.5054e+01|   -8.282396|  1.2727e-05|    0.095226|
|        1560|  6.5054e+01|  6.5054e+01|   -8.288601|  1.1930e-05|    0.095225|
|        1570|  6.5054e+01|  6.5054e+01|   -8.293142|  1.1082e-05|    0.095226|
|        1580|  6.5054e+01|  6.5054e+01|   -8.296055|  1.0229e-05|    0.095227|
|        1590|  6.5054e+01|  6.5054e+01|   -8.300459|  9.7674e-06|    0.095230|
|        1600|  6.5054e+01|  6.5054e+01|   -8.307094|  9.4794e-06|    0.095237|
+-----------------------------------------------------------------------+
|        File Writing Summary       |              Filename             |
+-----------------------------------------------------------------------+
|SU2 binary restart                 |restart_flow_G7.dat                |
|Paraview                           |flow_G7.vtu                        |
|Paraview surface                   |surface_flow_G7.vtu                |
+-----------------------------------------------------------------------+
+-----------------------------------------------------------------------------+
|  Inner_Iter|     Min CFL|     Max CFL|      rms[P]|  Cauchy[CD]|          CD|
+-----------------------------------------------------------------------------+
|        1610|  6.5054e+01|  6.5054e+01|   -8.315861|  9.1767e-06|    0.095245|
|        1620|  2.3310e+01|  2.3310e+01|   -8.325194|  8.6479e-06|    0.095249|
|        1630|  1.2028e+01|  1.2028e+01|   -8.331246|  8.2024e-06|    0.095257|
|        1640|  6.2059e+01|  6.2059e+01|   -8.337278|  7.7091e-06|    0.095262|
|        1650|  6.2059e+01|  6.2059e+01|   -8.353754|  7.6406e-06|    0.095271|
|        1660|  6.2059e+01|  6.2059e+01|   -8.376672|  7.9251e-06|    0.095284|
|        1670|  6.2059e+01|  6.2059e+01|   -8.403112|  8.2317e-06|    0.095297|
|        1680|  2.6684e+01|  2.6684e+01|   -8.419279|  7.5987e-06|    0.095303|
|        1690|  1.3769e+01|  1.3769e+01|   -8.433405|  7.4200e-06|    0.095312|
|        1700|  5.9202e+01|  5.9202e+01|   -8.445257|  7.6037e-06|    0.095320|
|        1710|  5.9202e+01|  5.9202e+01|   -8.470714|  7.9172e-06|    0.095334|
|        1720|  5.9202e+01|  5.9202e+01|   -8.492959|  7.7981e-06|    0.095349|
|        1730|  5.9202e+01|  5.9202e+01|   -8.507621|  7.7855e-06|    0.095364|
|        1740|  5.9202e+01|  5.9202e+01|   -8.515059|  7.9351e-06|    0.095380|
|        1750|  5.9202e+01|  5.9202e+01|   -8.517679|  8.4720e-06|    0.095397|
|        1760|  5.9202e+01|  5.9202e+01|   -8.517980|  8.9750e-06|    0.095413|
|        1770|  1.4731e+01|  1.4731e+01|   -8.520539|  8.9810e-06|    0.095423|
|        1780|  7.6011e+00|  7.6011e+00|   -8.518284|  8.9027e-06|    0.095432|
|        1790|  4.7064e+01|  4.7064e+01|   -8.521553|  8.8234e-06|    0.095438|
|        1800|  5.6477e+01|  5.6477e+01|   -8.520636|  9.1107e-06|    0.095451|
+-----------------------------------------------------------------------+
|        File Writing Summary       |              Filename             |
+-----------------------------------------------------------------------+
|SU2 binary restart                 |restart_flow_G7.dat                |
|Paraview                           |flow_G7.vtu                        |
|Paraview surface                   |surface_flow_G7.vtu                |
+-----------------------------------------------------------------------+
+-----------------------------------------------------------------------------+
|  Inner_Iter|     Min CFL|     Max CFL|      rms[P]|  Cauchy[CD]|          CD|
+-----------------------------------------------------------------------------+
|        1810|  5.6477e+01|  5.6477e+01|   -8.526729|  9.6601e-06|    0.095466|
|        1820|  5.6477e+01|  5.6477e+01|   -8.536206|  1.0231e-05|    0.095482|
|        1830|  5.6477e+01|  5.6477e+01|   -8.548702|  1.0821e-05|    0.095497|
|        1840|  5.6477e+01|  5.6477e+01|   -8.563834|  1.1335e-05|    0.095514|
|        1850|  5.6477e+01|  5.6477e+01|   -8.580465|  1.1699e-05|    0.095529|
|        1860|  5.6477e+00|  5.6477e+00|   -8.597962|  1.1974e-05|    0.095545|
|        1870|  3.4969e+01|  3.4969e+01|   -8.607225|  1.1973e-05|    0.095549|
|        1880|  1.8043e+01|  1.8043e+01|   -8.614983|  1.1974e-05|    0.095556|
|        1890|  5.3877e+01|  5.3877e+01|   -8.622801|  1.2162e-05|    0.095566|
|        1900|  5.3877e+01|  5.3877e+01|   -8.638528|  1.2334e-05|    0.095580|
|        1910|  5.3877e+01|  5.3877e+01|   -8.653394|  1.2421e-05|    0.095594|
|        1920|  5.3877e+01|  5.3877e+01|   -8.667484|  1.2454e-05|    0.095609|
|        1930|  5.3877e+01|  5.3877e+01|   -8.681149|  1.2816e-05|    0.095623|
|        1940|  5.3877e+01|  5.3877e+01|   -8.693817|  1.3055e-05|    0.095638|
|        1950|  5.3877e+01|  5.3877e+01|   -8.705476|  1.3300e-05|    0.095653|
|        1960|  1.3406e+01|  1.3406e+01|   -8.715750|  1.3080e-05|    0.095661|
|        1970|  6.9173e+00|  6.9173e+00|   -8.719434|  1.2804e-05|    0.095669|
|        1980|  4.2830e+01|  4.2830e+01|   -8.726057|  1.2404e-05|    0.095674|
|        1990|  5.1396e+01|  5.1396e+01|   -8.732165|  1.2270e-05|    0.095687|
|        2000|  5.1396e+01|  5.1396e+01|   -8.743004|  1.2146e-05|    0.095701|
+-----------------------------------------------------------------------+
|        File Writing Summary       |              Filename             |
+-----------------------------------------------------------------------+
|SU2 binary restart                 |restart_flow_G7.dat                |
|Paraview                           |flow_G7.vtu                        |
|Paraview surface                   |surface_flow_G7.vtu                |
+-----------------------------------------------------------------------+
+-----------------------------------------------------------------------------+
|  Inner_Iter|     Min CFL|     Max CFL|      rms[P]|  Cauchy[CD]|          CD|
+-----------------------------------------------------------------------------+
|        2010|  5.1396e+01|  5.1396e+01|   -8.752654|  1.2037e-05|    0.095714|
|        2020|  5.1396e+01|  5.1396e+01|   -8.761949|  1.2211e-05|    0.095728|
|        2030|  5.1396e+01|  5.1396e+01|   -8.771067|  1.2384e-05|    0.095742|
|        2040|  5.1396e+01|  5.1396e+01|   -8.779587|  1.2738e-05|    0.095756|
|        2050|  5.1396e+01|  5.1396e+01|   -8.787519|  1.2749e-05|    0.095770|
|        2060|  5.1396e+01|  5.1396e+01|   -8.795240|  1.2681e-05|    0.095783|
|        2070|  5.1396e+01|  5.1396e+01|   -8.803200|  1.2598e-05|    0.095797|
|        2080|  5.1396e+01|  5.1396e+01|   -8.811382|  1.2501e-05|    0.095810|
|        2090|  5.1396e+01|  5.1396e+01|   -8.819829|  1.2392e-05|    0.095823|
|        2100|  1.8416e+01|  1.8416e+01|   -8.827942|  1.1992e-05|    0.095829|
|        2110|  9.5024e+00|  9.5024e+00|   -8.832550|  1.1667e-05|    0.095836|
|        2120|  4.9030e+01|  4.9030e+01|   -8.835516|  1.1749e-05|    0.095842|
|        2130|  4.9030e+01|  4.9030e+01|   -8.841428|  1.1931e-05|    0.095854|
|        2140|  4.9030e+01|  4.9030e+01|   -8.850803|  1.2024e-05|    0.095866|
|        2150|  4.9030e+01|  4.9030e+01|   -8.859940|  1.1957e-05|    0.095878|
|        2160|  4.9030e+01|  4.9030e+01|   -8.869000|  1.1848e-05|    0.095890|
|        2170|  4.9030e+01|  4.9030e+01|   -8.878056|  1.1744e-05|    0.095902|
|        2180|  4.9030e+01|  4.9030e+01|   -8.886336|  1.1632e-05|    0.095914|
|        2190|  4.9030e+01|  4.9030e+01|   -8.893649|  1.1505e-05|    0.095926|
|        2200|  4.9030e+01|  4.9030e+01|   -8.900142|  1.1373e-05|    0.095937|
+-----------------------------------------------------------------------+
|        File Writing Summary       |              Filename             |
+-----------------------------------------------------------------------+
|SU2 binary restart                 |restart_flow_G7.dat                |
|Paraview                           |flow_G7.vtu                        |
|Paraview surface                   |surface_flow_G7.vtu                |
+-----------------------------------------------------------------------+
+-----------------------------------------------------------------------------+
|  Inner_Iter|     Min CFL|     Max CFL|      rms[P]|  Cauchy[CD]|          CD|
+-----------------------------------------------------------------------------+
|        2210|  4.9030e+01|  4.9030e+01|   -8.905882|  1.1481e-05|    0.095948|
|        2220|  1.4640e+01|  1.4640e+01|   -8.911938|  1.1373e-05|    0.095954|
|        2230|  7.5541e+00|  7.5541e+00|   -8.914433|  1.1420e-05|    0.095960|
|        2240|  4.6773e+01|  4.6773e+01|   -8.916587|  1.1094e-05|    0.095964|
|        2250|  4.6773e+01|  4.6773e+01|   -8.917259|  1.0943e-05|    0.095974|
|        2260|  4.6773e+01|  4.6773e+01|   -8.921848|  1.0799e-05|    0.095984|
|        2270|  4.6773e+01|  4.6773e+01|   -8.926376|  1.0655e-05|    0.095994|
|        2280|  4.6773e+01|  4.6773e+01|   -8.931122|  1.0504e-05|    0.096005|
|        2290|  4.6773e+01|  4.6773e+01|   -8.936272|  1.0345e-05|    0.096015|
|        2300|  4.6773e+01|  4.6773e+01|   -8.941446|  1.0191e-05|    0.096025|
|        2310|  4.6773e+01|  4.6773e+01|   -8.946486|  1.0047e-05|    0.096035|
|        2320|  4.6773e+01|  4.6773e+01|   -8.951580|  9.9087e-06|    0.096044|
|        2330|  4.6773e+01|  4.6773e+01|   -8.956991|  9.7615e-06|    0.096054|
|        2340|  4.6773e+01|  4.6773e+01|   -8.962555|  9.6065e-06|    0.096064|
|        2350|  4.6773e+01|  4.6773e+01|   -8.968045|  9.7559e-06|    0.096073|
|        2360|  4.6773e+01|  4.6773e+01|   -8.973428|  9.8550e-06|    0.096083|
|        2370|  4.6773e+01|  4.6773e+01|   -8.978693|  9.9840e-06|    0.096092|
|        2380|  4.6773e+01|  4.6773e+01|   -8.983894|  9.8907e-06|    0.096101|
|        2390|  4.6773e+01|  4.6773e+01|   -8.989035|  9.7759e-06|    0.096111|
|        2400|  4.6773e+01|  4.6773e+01|   -8.994134|  9.6695e-06|    0.096120|
+-----------------------------------------------------------------------+
|        File Writing Summary       |              Filename             |
+-----------------------------------------------------------------------+
|SU2 binary restart                 |restart_flow_G7.dat                |
|Paraview                           |flow_G7.vtu                        |
|Paraview surface                   |surface_flow_G7.vtu                |
+-----------------------------------------------------------------------+
+-----------------------------------------------------------------------------+
|  Inner_Iter|     Min CFL|     Max CFL|      rms[P]|  Cauchy[CD]|          CD|
+-----------------------------------------------------------------------------+
|        2410|  4.6773e+01|  4.6773e+01|   -8.999273|  9.5686e-06|    0.096130|
|        2420|  4.6773e+01|  4.6773e+01|   -9.004499|  9.4644e-06|    0.096139|
|        2430|  4.6773e+01|  4.6773e+01|   -9.009776|  9.3578e-06|    0.096148|
|        2440|  4.6773e+01|  4.6773e+01|   -9.015099|  9.2574e-06|    0.096157|
|        2450|  4.6773e+01|  4.6773e+01|   -9.020525|  9.1708e-06|    0.096167|
|        2460|  4.6773e+01|  4.6773e+01|   -9.026059|  9.0979e-06|    0.096176|
|        2470|  4.6773e+01|  4.6773e+01|   -9.031632|  9.2453e-06|    0.096185|
|        2480|  4.6773e+01|  4.6773e+01|   -9.037192|  9.3722e-06|    0.096194|
|        2490|  9.6988e+00|  9.6988e+00|   -9.043773|  9.4341e-06|    0.096200|
|        2500|  5.0044e+00|  5.0044e+00|   -9.046049|  9.2411e-06|    0.096205|
|        2510|  3.0986e+01|  3.0986e+01|   -9.049829|  8.9354e-06|    0.096208|
|        2520|  1.5988e+01|  1.5988e+01|   -9.052070|  8.6988e-06|    0.096212|
|        2530|  8.2495e+00|  8.2495e+00|   -9.054676|  8.4652e-06|    0.096216|
|        2540|  5.1079e+01|  5.1079e+01|   -9.056570|  8.2277e-06|    0.096220|
|        2550|  2.6355e+01|  2.6355e+01|   -9.059693|  7.9472e-06|    0.096223|
|        2560|  4.5542e+01|  4.5542e+01|   -9.060826|  7.8635e-06|    0.096231|
|        2570|  4.5542e+01|  4.5542e+01|   -9.066074|  7.8192e-06|    0.096240|
|        2580|  4.5542e+01|  4.5542e+01|   -9.071433|  7.7808e-06|    0.096249|
|        2590|  4.5542e+01|  4.5542e+01|   -9.076701|  7.7476e-06|    0.096257|
|        2600|  4.5542e+01|  4.5542e+01|   -9.081910|  7.7190e-06|    0.096266|
+-----------------------------------------------------------------------+
|        File Writing Summary       |              Filename             |
+-----------------------------------------------------------------------+
|SU2 binary restart                 |restart_flow_G7.dat                |
|Paraview                           |flow_G7.vtu                        |
|Paraview surface                   |surface_flow_G7.vtu                |
+-----------------------------------------------------------------------+
+-----------------------------------------------------------------------------+
|  Inner_Iter|     Min CFL|     Max CFL|      rms[P]|  Cauchy[CD]|          CD|
+-----------------------------------------------------------------------------+
|        2610|  4.5542e+01|  4.5542e+01|   -9.086925|  7.6925e-06|    0.096275|
|        2620|  4.5542e+01|  4.5542e+01|   -9.091701|  7.6666e-06|    0.096284|
|        2630|  4.5542e+01|  4.5542e+01|   -9.096606|  7.6375e-06|    0.096292|
|        2640|  4.5542e+01|  4.5542e+01|   -9.101571|  7.6021e-06|    0.096301|
|        2650|  4.5542e+01|  4.5542e+01|   -9.106349|  7.5646e-06|    0.096309|
|        2660|  4.5542e+01|  4.5542e+01|   -9.110771|  7.5312e-06|    0.096318|
|        2670|  4.5542e+01|  4.5542e+01|   -9.114974|  7.5018e-06|    0.096326|
|        2680|  4.5542e+01|  4.5542e+01|   -9.119190|  7.4720e-06|    0.096335|
|        2690|  4.5542e+01|  4.5542e+01|   -9.123466|  7.4406e-06|    0.096343|
|        2700|  4.5542e+01|  4.5542e+01|   -9.127718|  7.4097e-06|    0.096352|
|        2710|  4.5542e+01|  4.5542e+01|   -9.131868|  7.3794e-06|    0.096360|
|        2720|  4.5542e+01|  4.5542e+01|   -9.135936|  7.3475e-06|    0.096369|
|        2730|  4.5542e+01|  4.5542e+01|   -9.139976|  7.3137e-06|    0.096377|
|        2740|  4.5542e+01|  4.5542e+01|   -9.144015|  7.4063e-06|    0.096385|
|        2750|  4.5542e+01|  4.5542e+01|   -9.148097|  7.5337e-06|    0.096393|
|        2760|  4.5542e+01|  4.5542e+01|   -9.152297|  7.7623e-06|    0.096402|
|        2770|  4.5542e+01|  4.5542e+01|   -9.156641|  7.9253e-06|    0.096410|
|        2780|  4.5542e+01|  4.5542e+01|   -9.161047|  8.0828e-06|    0.096418|
|        2790|  4.5542e+01|  4.5542e+01|   -9.165409|  8.2425e-06|    0.096426|
|        2800|  4.5542e+01|  4.5542e+01|   -9.169715|  8.4493e-06|    0.096435|
+-----------------------------------------------------------------------+
|        File Writing Summary       |              Filename             |
+-----------------------------------------------------------------------+
|SU2 binary restart                 |restart_flow_G7.dat                |
|Paraview                           |flow_G7.vtu                        |
|Paraview surface                   |surface_flow_G7.vtu                |
+-----------------------------------------------------------------------+
+-----------------------------------------------------------------------------+
|  Inner_Iter|     Min CFL|     Max CFL|      rms[P]|  Cauchy[CD]|          CD|
+-----------------------------------------------------------------------------+
|        2810|  4.5542e+01|  4.5542e+01|   -9.174054|  8.4656e-06|    0.096443|
|        2820|  4.5542e+01|  4.5542e+01|   -9.178523|  8.4456e-06|    0.096451|
|        2830|  4.5542e+01|  4.5542e+01|   -9.183134|  8.4232e-06|    0.096459|
|        2840|  4.5542e+01|  4.5542e+01|   -9.187807|  8.4001e-06|    0.096467|
|        2850|  4.5542e+01|  4.5542e+01|   -9.192424|  8.3741e-06|    0.096475|
|        2860|  4.5542e+01|  4.5542e+01|   -9.196914|  8.3444e-06|    0.096484|
|        2870|  1.1332e+01|  1.1332e+01|   -9.202384|  8.1782e-06|    0.096488|
|        2880|  5.8472e+00|  5.8472e+00|   -9.202963|  8.0081e-06|    0.096493|
|        2890|  3.6205e+01|  3.6205e+01|   -9.207265|  7.7774e-06|    0.096495|
|        2900|  1.8681e+01|  1.8681e+01|   -9.209030|  7.5789e-06|    0.096499|
|        2910|  9.6389e+00|  9.6389e+00|   -9.210968|  7.3877e-06|    0.096502|
|        2920|  4.9734e+00|  4.9734e+00|   -9.211579|  7.2252e-06|    0.096507|
|        2930|  3.0794e+01|  3.0794e+01|   -9.214888|  6.9764e-06|    0.096509|
|        2940|  4.4344e+01|  4.4344e+01|   -9.215249|  6.9284e-06|    0.096516|
|        2950|  4.4344e+01|  4.4344e+01|   -9.219449|  6.9007e-06|    0.096524|
|        2960|  4.4344e+01|  4.4344e+01|   -9.223831|  6.8757e-06|    0.096532|
|        2970|  4.4344e+01|  4.4344e+01|   -9.228327|  6.8544e-06|    0.096540|
|        2980|  4.4344e+01|  4.4344e+01|   -9.232909|  6.8376e-06|    0.096548|
|        2990|  4.4344e+01|  4.4344e+01|   -9.237339|  6.8223e-06|    0.096556|
|        3000|  4.4344e+01|  4.4344e+01|   -9.241538|  6.8054e-06|    0.096564|
+-----------------------------------------------------------------------+
|        File Writing Summary       |              Filename             |
+-----------------------------------------------------------------------+
|SU2 binary restart                 |restart_flow_G7.dat                |
|Paraview                           |flow_G7.vtu                        |
|Paraview surface                   |surface_flow_G7.vtu                |
+-----------------------------------------------------------------------+
+-----------------------------------------------------------------------------+
|  Inner_Iter|     Min CFL|     Max CFL|      rms[P]|  Cauchy[CD]|          CD|
+-----------------------------------------------------------------------------+
|        3010|  4.4344e+01|  4.4344e+01|   -9.245919|  6.7855e-06|    0.096571|
|        3020|  4.4344e+01|  4.4344e+01|   -9.250500|  6.7633e-06|    0.096579|
|        3030|  4.4344e+01|  4.4344e+01|   -9.255101|  6.7408e-06|    0.096587|
|        3040|  4.4344e+01|  4.4344e+01|   -9.259536|  6.7197e-06|    0.096594|
|        3050|  4.4344e+01|  4.4344e+01|   -9.263859|  6.7005e-06|    0.096602|
|        3060|  4.4344e+01|  4.4344e+01|   -9.268269|  6.6821e-06|    0.096610|
|        3070|  4.4344e+01|  4.4344e+01|   -9.272817|  6.6636e-06|    0.096618|
|        3080|  4.4344e+01|  4.4344e+01|   -9.277425|  6.6450e-06|    0.096625|
|        3090|  4.4344e+01|  4.4344e+01|   -9.281962|  6.6260e-06|    0.096633|
|        3100|  4.4344e+01|  4.4344e+01|   -9.286382|  6.6059e-06|    0.096641|
|        3110|  4.4344e+01|  4.4344e+01|   -9.290719|  6.5846e-06|    0.096648|
|        3120|  4.4344e+01|  4.4344e+01|   -9.295007|  6.7003e-06|    0.096656|
|        3130|  4.4344e+01|  4.4344e+01|   -9.299280|  6.8260e-06|    0.096663|
|        3140|  4.4344e+01|  4.4344e+01|   -9.303595|  7.0191e-06|    0.096671|
|        3150|  4.4344e+01|  4.4344e+01|   -9.307985|  7.1820e-06|    0.096678|
|        3160|  4.4344e+01|  4.4344e+01|   -9.312389|  7.3346e-06|    0.096686|
|        3170|  4.4344e+01|  4.4344e+01|   -9.316692|  7.4555e-06|    0.096693|
|        3180|  4.4344e+01|  4.4344e+01|   -9.320843|  7.6621e-06|    0.096701|
|        3190|  4.4344e+01|  4.4344e+01|   -9.324911|  7.6678e-06|    0.096708|
|        3200|  4.4344e+01|  4.4344e+01|   -9.329022|  7.6527e-06|    0.096716|
+-----------------------------------------------------------------------+
|        File Writing Summary       |              Filename             |
+-----------------------------------------------------------------------+
|SU2 binary restart                 |restart_flow_G7.dat                |
|Paraview                           |flow_G7.vtu                        |
|Paraview surface                   |surface_flow_G7.vtu                |
+-----------------------------------------------------------------------+
+-----------------------------------------------------------------------------+
|  Inner_Iter|     Min CFL|     Max CFL|      rms[P]|  Cauchy[CD]|          CD|
+-----------------------------------------------------------------------------+
|        3210|  4.4344e+01|  4.4344e+01|   -9.333260|  7.6355e-06|    0.096723|
|        3220|  4.4344e+01|  4.4344e+01|   -9.337618|  7.6172e-06|    0.096730|
|        3230|  4.4344e+01|  4.4344e+01|   -9.342010|  7.5967e-06|    0.096738|
|        3240|  4.4344e+01|  4.4344e+01|   -9.346341|  7.5734e-06|    0.096745|
|        3250|  4.4344e+01|  4.4344e+01|   -9.350564|  7.5491e-06|    0.096752|
|        3260|  4.4344e+01|  4.4344e+01|   -9.354699|  7.5267e-06|    0.096760|
|        3270|  4.4344e+01|  4.4344e+01|   -9.358816|  7.5076e-06|    0.096767|
|        3280|  4.4344e+01|  4.4344e+01|   -9.362984|  7.4901e-06|    0.096774|
|        3290|  4.4344e+01|  4.4344e+01|   -9.367242|  7.4714e-06|    0.096781|
|        3300|  4.4344e+01|  4.4344e+01|   -9.371584|  7.4502e-06|    0.096788|
|        3310|  4.4344e+01|  4.4344e+01|   -9.375969|  7.4275e-06|    0.096796|
|        3320|  4.4344e+01|  4.4344e+01|   -9.380345|  7.4043e-06|    0.096803|
|        3330|  4.4344e+01|  4.4344e+01|   -9.384674|  7.3806e-06|    0.096810|
|        3340|  4.4344e+01|  4.4344e+01|   -9.388947|  7.3563e-06|    0.096817|
|        3350|  4.4344e+01|  4.4344e+01|   -9.393174|  7.3327e-06|    0.096824|
|        3360|  4.4344e+01|  4.4344e+01|   -9.397383|  7.3103e-06|    0.096831|
|        3370|  4.4344e+01|  4.4344e+01|   -9.401597|  7.2878e-06|    0.096838|
|        3380|  4.4344e+01|  4.4344e+01|   -9.405832|  7.2639e-06|    0.096845|
|        3390|  4.4344e+01|  4.4344e+01|   -9.410091|  7.2385e-06|    0.096852|
|        3400|  4.4344e+01|  4.4344e+01|   -9.414361|  7.2132e-06|    0.096859|
+-----------------------------------------------------------------------+
|        File Writing Summary       |              Filename             |
+-----------------------------------------------------------------------+
|SU2 binary restart                 |restart_flow_G7.dat                |
|Paraview                           |flow_G7.vtu                        |
|Paraview surface                   |surface_flow_G7.vtu                |
+-----------------------------------------------------------------------+
+-----------------------------------------------------------------------------+
|  Inner_Iter|     Min CFL|     Max CFL|      rms[P]|  Cauchy[CD]|          CD|
+-----------------------------------------------------------------------------+
|        3410|  4.4344e+01|  4.4344e+01|   -9.418622|  7.1887e-06|    0.096866|
|        3420|  4.4344e+01|  4.4344e+01|   -9.422855|  7.1647e-06|    0.096872|
|        3430|  4.4344e+01|  4.4344e+01|   -9.427050|  7.1404e-06|    0.096879|
|        3440|  4.4344e+01|  4.4344e+01|   -9.431211|  7.1156e-06|    0.096886|
|        3450|  4.4344e+01|  4.4344e+01|   -9.435355|  7.0904e-06|    0.096893|
|        3460|  4.4344e+01|  4.4344e+01|   -9.439497|  7.0648e-06|    0.096900|
|        3470|  4.4344e+01|  4.4344e+01|   -9.443647|  7.0386e-06|    0.096906|
|        3480|  4.4344e+01|  4.4344e+01|   -9.447803|  7.0121e-06|    0.096913|
|        3490|  4.4344e+01|  4.4344e+01|   -9.451954|  6.9855e-06|    0.096920|
|        3500|  4.4344e+01|  4.4344e+01|   -9.456088|  6.9592e-06|    0.096926|
|        3510|  4.4344e+01|  4.4344e+01|   -9.460196|  6.9329e-06|    0.096933|
|        3520|  4.4344e+01|  4.4344e+01|   -9.464279|  6.9063e-06|    0.096939|
|        3530|  4.4344e+01|  4.4344e+01|   -9.468341|  6.8793e-06|    0.096946|
|        3540|  4.4344e+01|  4.4344e+01|   -9.472391|  6.8519e-06|    0.096953|
|        3550|  4.4344e+01|  4.4344e+01|   -9.476432|  6.8243e-06|    0.096959|
|        3560|  4.4344e+01|  4.4344e+01|   -9.480465|  6.7966e-06|    0.096965|
|        3570|  4.4344e+01|  4.4344e+01|   -9.484485|  6.7687e-06|    0.096972|
|        3580|  4.4344e+01|  4.4344e+01|   -9.488485|  6.7407e-06|    0.096978|
|        3590|  4.4344e+01|  4.4344e+01|   -9.492461|  6.7125e-06|    0.096985|
|        3600|  4.4344e+01|  4.4344e+01|   -9.496410|  6.6843e-06|    0.096991|
+-----------------------------------------------------------------------+
|        File Writing Summary       |              Filename             |
+-----------------------------------------------------------------------+
|SU2 binary restart                 |restart_flow_G7.dat                |
|Paraview                           |flow_G7.vtu                        |
|Paraview surface                   |surface_flow_G7.vtu                |
+-----------------------------------------------------------------------+
+-----------------------------------------------------------------------------+
|  Inner_Iter|     Min CFL|     Max CFL|      rms[P]|  Cauchy[CD]|          CD|
+-----------------------------------------------------------------------------+
|        3610|  4.4344e+01|  4.4344e+01|   -9.500335|  6.6560e-06|    0.096997|
|        3620|  4.4344e+01|  4.4344e+01|   -9.504241|  6.6275e-06|    0.097004|
|        3630|  4.4344e+01|  4.4344e+01|   -9.508133|  6.5988e-06|    0.097010|
|        3640|  4.4344e+01|  4.4344e+01|   -9.512013|  6.5698e-06|    0.097016|
|        3650|  4.4344e+01|  4.4344e+01|   -9.515884|  6.5406e-06|    0.097022|
|        3660|  4.4344e+01|  4.4344e+01|   -9.519741|  6.5112e-06|    0.097028|
|        3670|  4.4344e+01|  4.4344e+01|   -9.523584|  6.4818e-06|    0.097034|
|        3680|  4.4344e+01|  4.4344e+01|   -9.527409|  6.4523e-06|    0.097041|
|        3690|  4.4344e+01|  4.4344e+01|   -9.531218|  6.4229e-06|    0.097047|
|        3700|  4.4344e+01|  4.4344e+01|   -9.535014|  6.3935e-06|    0.097053|
|        3710|  4.4344e+01|  4.4344e+01|   -9.538801|  6.3640e-06|    0.097059|
|        3720|  4.4344e+01|  4.4344e+01|   -9.542583|  6.3344e-06|    0.097065|
|        3730|  4.4344e+01|  4.4344e+01|   -9.546363|  6.3047e-06|    0.097071|
|        3740|  4.4344e+01|  4.4344e+01|   -9.550138|  6.2749e-06|    0.097077|
|        3750|  4.4344e+01|  4.4344e+01|   -9.553905|  6.2452e-06|    0.097082|
|        3760|  4.4344e+01|  4.4344e+01|   -9.557660|  6.2154e-06|    0.097088|
|        3770|  4.4344e+01|  4.4344e+01|   -9.561400|  6.1857e-06|    0.097094|
|        3780|  4.4344e+01|  4.4344e+01|   -9.565126|  6.1560e-06|    0.097100|
|        3790|  4.4344e+01|  4.4344e+01|   -9.568838|  6.1262e-06|    0.097106|
|        3800|  4.4344e+01|  4.4344e+01|   -9.572540|  6.0965e-06|    0.097111|
+-----------------------------------------------------------------------+
|        File Writing Summary       |              Filename             |
+-----------------------------------------------------------------------+
|SU2 binary restart                 |restart_flow_G7.dat                |
|Paraview                           |flow_G7.vtu                        |
|Paraview surface                   |surface_flow_G7.vtu                |
+-----------------------------------------------------------------------+
+-----------------------------------------------------------------------------+
|  Inner_Iter|     Min CFL|     Max CFL|      rms[P]|  Cauchy[CD]|          CD|
+-----------------------------------------------------------------------------+
|        3810|  4.4344e+01|  4.4344e+01|   -9.576233|  6.0667e-06|    0.097117|
|        3820|  4.4344e+01|  4.4344e+01|   -9.579919|  6.0368e-06|    0.097123|
|        3830|  4.4344e+01|  4.4344e+01|   -9.583596|  6.0070e-06|    0.097128|
|        3840|  4.4344e+01|  4.4344e+01|   -9.587262|  5.9771e-06|    0.097134|
|        3850|  4.4344e+01|  4.4344e+01|   -9.590912|  5.9472e-06|    0.097140|
|        3860|  4.4344e+01|  4.4344e+01|   -9.594545|  5.9174e-06|    0.097145|
|        3870|  4.4344e+01|  4.4344e+01|   -9.598161|  5.8876e-06|    0.097151|
|        3880|  4.4344e+01|  4.4344e+01|   -9.601760|  5.8577e-06|    0.097156|
|        3890|  4.4344e+01|  4.4344e+01|   -9.605343|  5.8280e-06|    0.097162|
|        3900|  1.9067e+01|  1.9067e+01|   -9.610123|  5.6607e-06|    0.097164|
|        3910|  9.8381e+00|  9.8381e+00|   -9.612277|  5.5225e-06|    0.097166|
|        3920|  5.0763e+00|  5.0763e+00|   -9.612293|  5.4026e-06|    0.097170|
|        3930|  3.1431e+01|  3.1431e+01|   -9.615504|  5.2224e-06|    0.097171|
|        3940|  1.6218e+01|  1.6218e+01|   -9.617107|  5.0637e-06|    0.097173|
|        3950|  8.3679e+00|  8.3679e+00|   -9.618351|  4.9323e-06|    0.097176|
|        3960|  4.3177e+01|  4.3177e+01|   -9.619305|  4.7966e-06|    0.097179|
|        3970|  4.3177e+01|  4.3177e+01|   -9.620151|  4.7618e-06|    0.097184|
|        3980|  4.3177e+01|  4.3177e+01|   -9.623579|  4.7312e-06|    0.097189|
|        3990|  4.3177e+01|  4.3177e+01|   -9.626951|  4.7009e-06|    0.097194|
|        4000|  4.3177e+01|  4.3177e+01|   -9.630448|  4.6705e-06|    0.097199|
+-----------------------------------------------------------------------+
|        File Writing Summary       |              Filename             |
+-----------------------------------------------------------------------+
|SU2 binary restart                 |restart_flow_G7.dat                |
|Paraview                           |flow_G7.vtu                        |
|Paraview surface                   |surface_flow_G7.vtu                |
+-----------------------------------------------------------------------+
+-----------------------------------------------------------------------------+
|  Inner_Iter|     Min CFL|     Max CFL|      rms[P]|  Cauchy[CD]|          CD|
+-----------------------------------------------------------------------------+
|        4010|  4.3177e+01|  4.3177e+01|   -9.633938|  4.6405e-06|    0.097204|
|        4020|  4.3177e+01|  4.3177e+01|   -9.637244|  4.6115e-06|    0.097209|
|        4030|  4.3177e+01|  4.3177e+01|   -9.640418|  4.5831e-06|    0.097214|
|        4040|  4.3177e+01|  4.3177e+01|   -9.643809|  4.5542e-06|    0.097220|
|        4050|  4.3177e+01|  4.3177e+01|   -9.647362|  4.5238e-06|    0.097225|
|        4060|  4.3177e+01|  4.3177e+01|   -9.650855|  4.4927e-06|    0.097229|
|        4070|  4.3177e+01|  4.3177e+01|   -9.654123|  4.4619e-06|    0.097234|
|        4080|  4.3177e+01|  4.3177e+01|   -9.657253|  4.4321e-06|    0.097239|
|        4090|  4.3177e+01|  4.3177e+01|   -9.660438|  4.4030e-06|    0.097244|
|        4100|  4.3177e+01|  4.3177e+01|   -9.663740|  4.3741e-06|    0.097249|
|        4110|  4.3177e+01|  4.3177e+01|   -9.667127|  4.3453e-06|    0.097254|
|        4120|  4.3177e+01|  4.3177e+01|   -9.670504|  4.3167e-06|    0.097259|
|        4130|  4.3177e+01|  4.3177e+01|   -9.673819|  4.2881e-06|    0.097263|
|        4140|  4.3177e+01|  4.3177e+01|   -9.677060|  4.2591e-06|    0.097268|
|        4150|  4.3177e+01|  4.3177e+01|   -9.680224|  4.3673e-06|    0.097273|
|        4160|  4.3177e+01|  4.3177e+01|   -9.683333|  4.4472e-06|    0.097278|
|        4170|  4.3177e+01|  4.3177e+01|   -9.686469|  4.5093e-06|    0.097282|
|        4180|  4.3177e+01|  4.3177e+01|   -9.689715|  4.6321e-06|    0.097287|
|        4190|  4.3177e+01|  4.3177e+01|   -9.693051|  4.7333e-06|    0.097292|
|        4200|  4.3177e+01|  4.3177e+01|   -9.696351|  4.8071e-06|    0.097296|
+-----------------------------------------------------------------------+
|        File Writing Summary       |              Filename             |
+-----------------------------------------------------------------------+
|SU2 binary restart                 |restart_flow_G7.dat                |
|Paraview                           |flow_G7.vtu                        |
|Paraview surface                   |surface_flow_G7.vtu                |
+-----------------------------------------------------------------------+
+-----------------------------------------------------------------------------+
|  Inner_Iter|     Min CFL|     Max CFL|      rms[P]|  Cauchy[CD]|          CD|
+-----------------------------------------------------------------------------+
|        4210|  4.3177e+01|  4.3177e+01|   -9.699511|  4.8852e-06|    0.097301|
|        4220|  4.3177e+01|  4.3177e+01|   -9.702542|  4.8626e-06|    0.097305|
|        4230|  4.3177e+01|  4.3177e+01|   -9.705555|  4.8360e-06|    0.097310|
|        4240|  4.3177e+01|  4.3177e+01|   -9.708656|  4.8092e-06|    0.097314|
|        4250|  4.3177e+01|  4.3177e+01|   -9.711875|  4.7829e-06|    0.097319|
|        4260|  4.3177e+01|  4.3177e+01|   -9.715160|  4.7565e-06|    0.097323|
|        4270|  4.3177e+01|  4.3177e+01|   -9.718426|  4.7293e-06|    0.097328|
|        4280|  4.3177e+01|  4.3177e+01|   -9.721599|  4.7015e-06|    0.097332|
|        4290|  4.3177e+01|  4.3177e+01|   -9.724657|  4.6744e-06|    0.097336|
|        4300|  4.3177e+01|  4.3177e+01|   -9.727636|  4.6488e-06|    0.097341|
|        4310|  4.3177e+01|  4.3177e+01|   -9.730601|  4.6243e-06|    0.097345|
|        4320|  4.3177e+01|  4.3177e+01|   -9.733613|  4.5998e-06|    0.097349|
|        4330|  4.3177e+01|  4.3177e+01|   -9.736696|  4.5745e-06|    0.097354|
|        4340|  4.3177e+01|  4.3177e+01|   -9.739832|  4.5487e-06|    0.097358|
|        4350|  4.3177e+01|  4.3177e+01|   -9.742979|  4.5230e-06|    0.097362|
|        4360|  4.3177e+01|  4.3177e+01|   -9.746092|  4.4975e-06|    0.097366|
|        4370|  4.3177e+01|  4.3177e+01|   -9.749149|  4.4721e-06|    0.097370|
|        4380|  4.3177e+01|  4.3177e+01|   -9.752152|  4.4470e-06|    0.097375|
|        4390|  4.3177e+01|  4.3177e+01|   -9.755124|  4.4226e-06|    0.097379|
|        4400|  4.3177e+01|  4.3177e+01|   -9.758089|  4.3985e-06|    0.097383|
+-----------------------------------------------------------------------+
|        File Writing Summary       |              Filename             |
+-----------------------------------------------------------------------+
|SU2 binary restart                 |restart_flow_G7.dat                |
|Paraview                           |flow_G7.vtu                        |
|Paraview surface                   |surface_flow_G7.vtu                |
+-----------------------------------------------------------------------+
+-----------------------------------------------------------------------------+
|  Inner_Iter|     Min CFL|     Max CFL|      rms[P]|  Cauchy[CD]|          CD|
+-----------------------------------------------------------------------------+
|        4410|  4.3177e+01|  4.3177e+01|   -9.761066|  4.3742e-06|    0.097387|
|        4420|  4.3177e+01|  4.3177e+01|   -9.764062|  4.3496e-06|    0.097391|
|        4430|  4.3177e+01|  4.3177e+01|   -9.767073|  4.3249e-06|    0.097395|
|        4440|  4.3177e+01|  4.3177e+01|   -9.770089|  4.3006e-06|    0.097399|
|        4450|  4.3177e+01|  4.3177e+01|   -9.773095|  4.2768e-06|    0.097403|
|        4460|  4.3177e+01|  4.3177e+01|   -9.776080|  4.2533e-06|    0.097407|
|        4470|  4.3177e+01|  4.3177e+01|   -9.779040|  4.2298e-06|    0.097411|
|        4480|  4.3177e+01|  4.3177e+01|   -9.781978|  4.2064e-06|    0.097415|
|        4490|  4.3177e+01|  4.3177e+01|   -9.784904|  4.1829e-06|    0.097419|
|        4500|  4.3177e+01|  4.3177e+01|   -9.787830|  4.1595e-06|    0.097423|
|        4510|  4.3177e+01|  4.3177e+01|   -9.790761|  4.1362e-06|    0.097427|
|        4520|  4.3177e+01|  4.3177e+01|   -9.793698|  4.1130e-06|    0.097430|
|        4530|  4.3177e+01|  4.3177e+01|   -9.796633|  4.0900e-06|    0.097434|
|        4540|  4.3177e+01|  4.3177e+01|   -9.799561|  4.0674e-06|    0.097438|
|        4550|  4.3177e+01|  4.3177e+01|   -9.802476|  4.0449e-06|    0.097442|
|        4560|  4.3177e+01|  4.3177e+01|   -9.805378|  4.0224e-06|    0.097446|
|        4570|  4.3177e+01|  4.3177e+01|   -9.808272|  4.0000e-06|    0.097449|
|        4580|  4.3177e+01|  4.3177e+01|   -9.811162|  3.9776e-06|    0.097453|
|        4590|  4.3177e+01|  4.3177e+01|   -9.814050|  3.9554e-06|    0.097457|
|        4600|  4.3177e+01|  4.3177e+01|   -9.816936|  3.9333e-06|    0.097460|
+-----------------------------------------------------------------------+
|        File Writing Summary       |              Filename             |
+-----------------------------------------------------------------------+
|SU2 binary restart                 |restart_flow_G7.dat                |
|Paraview                           |flow_G7.vtu                        |
|Paraview surface                   |surface_flow_G7.vtu                |
+-----------------------------------------------------------------------+
+-----------------------------------------------------------------------------+
|  Inner_Iter|     Min CFL|     Max CFL|      rms[P]|  Cauchy[CD]|          CD|
+-----------------------------------------------------------------------------+
|        4610|  4.3177e+01|  4.3177e+01|   -9.819819|  3.9113e-06|    0.097464|
|        4620|  4.3177e+01|  4.3177e+01|   -9.822697|  3.8894e-06|    0.097468|
|        4630|  4.3177e+01|  4.3177e+01|   -9.825569|  3.8675e-06|    0.097471|
|        4640|  4.3177e+01|  4.3177e+01|   -9.828434|  3.8459e-06|    0.097475|
|        4650|  4.3177e+01|  4.3177e+01|   -9.831293|  3.8243e-06|    0.097478|
|        4660|  4.3177e+01|  4.3177e+01|   -9.834147|  3.8028e-06|    0.097482|
|        4670|  4.3177e+01|  4.3177e+01|   -9.836998|  3.7814e-06|    0.097486|
|        4680|  4.3177e+01|  4.3177e+01|   -9.839845|  3.7600e-06|    0.097489|
|        4690|  4.3177e+01|  4.3177e+01|   -9.842690|  3.7388e-06|    0.097493|
|        4700|  4.3177e+01|  4.3177e+01|   -9.845534|  3.7177e-06|    0.097496|
|        4710|  4.3177e+01|  4.3177e+01|   -9.848376|  3.6967e-06|    0.097499|
|        4720|  4.3177e+01|  4.3177e+01|   -9.851215|  3.6758e-06|    0.097503|
|        4730|  4.3177e+01|  4.3177e+01|   -9.854050|  3.6551e-06|    0.097506|
|        4740|  4.3177e+01|  4.3177e+01|   -9.856878|  3.6345e-06|    0.097510|
|        4750|  4.3177e+01|  4.3177e+01|   -9.859701|  3.6140e-06|    0.097513|
|        4760|  4.3177e+01|  4.3177e+01|   -9.862519|  3.5937e-06|    0.097516|
|        4770|  4.3177e+01|  4.3177e+01|   -9.865334|  3.5733e-06|    0.097520|
|        4780|  4.3177e+01|  4.3177e+01|   -9.868147|  3.5531e-06|    0.097523|
|        4790|  4.3177e+01|  4.3177e+01|   -9.870958|  3.5330e-06|    0.097526|
|        4800|  4.3177e+01|  4.3177e+01|   -9.873765|  3.5130e-06|    0.097530|
+-----------------------------------------------------------------------+
|        File Writing Summary       |              Filename             |
+-----------------------------------------------------------------------+
|SU2 binary restart                 |restart_flow_G7.dat                |
|Paraview                           |flow_G7.vtu                        |
|Paraview surface                   |surface_flow_G7.vtu                |
+-----------------------------------------------------------------------+
+-----------------------------------------------------------------------------+
|  Inner_Iter|     Min CFL|     Max CFL|      rms[P]|  Cauchy[CD]|          CD|
+-----------------------------------------------------------------------------+
|        4810|  4.3177e+01|  4.3177e+01|   -9.876566|  3.4931e-06|    0.097533|
|        4820|  4.3177e+01|  4.3177e+01|   -9.879362|  3.4733e-06|    0.097536|
|        4830|  4.3177e+01|  4.3177e+01|   -9.882152|  3.4536e-06|    0.097539|
|        4840|  4.3177e+01|  4.3177e+01|   -9.884939|  3.4341e-06|    0.097543|
|        4850|  4.3177e+01|  4.3177e+01|   -9.887723|  3.4146e-06|    0.097546|
|        4860|  4.3177e+01|  4.3177e+01|   -9.890504|  3.3952e-06|    0.097549|
|        4870|  4.3177e+01|  4.3177e+01|   -9.893281|  3.3759e-06|    0.097552|
|        4880|  4.3177e+01|  4.3177e+01|   -9.896055|  3.3567e-06|    0.097555|
|        4890|  4.3177e+01|  4.3177e+01|   -9.898824|  3.3376e-06|    0.097558|
|        4900|  4.3177e+01|  4.3177e+01|   -9.901589|  3.3186e-06|    0.097561|
|        4910|  4.3177e+01|  4.3177e+01|   -9.904349|  3.2997e-06|    0.097565|
|        4920|  4.3177e+01|  4.3177e+01|   -9.907105|  3.2808e-06|    0.097568|
|        4930|  4.3177e+01|  4.3177e+01|   -9.909856|  3.2621e-06|    0.097571|
|        4940|  4.3177e+01|  4.3177e+01|   -9.912604|  3.2434e-06|    0.097574|
|        4950|  4.3177e+01|  4.3177e+01|   -9.915347|  3.2249e-06|    0.097577|
|        4960|  4.3177e+01|  4.3177e+01|   -9.918085|  3.2064e-06|    0.097580|
|        4970|  4.3177e+01|  4.3177e+01|   -9.920819|  3.1880e-06|    0.097583|
|        4980|  4.3177e+01|  4.3177e+01|   -9.923549|  3.1696e-06|    0.097586|
|        4990|  4.3177e+01|  4.3177e+01|   -9.926275|  3.1514e-06|    0.097589|
|        5000|  4.3177e+01|  4.3177e+01|   -9.928999|  3.1333e-06|    0.097591|
+-----------------------------------------------------------------------+
|        File Writing Summary       |              Filename             |
+-----------------------------------------------------------------------+
|SU2 binary restart                 |restart_flow_G7.dat                |
|Paraview                           |flow_G7.vtu                        |
|Paraview surface                   |surface_flow_G7.vtu                |
+-----------------------------------------------------------------------+
+-----------------------------------------------------------------------------+
|  Inner_Iter|     Min CFL|     Max CFL|      rms[P]|  Cauchy[CD]|          CD|
+-----------------------------------------------------------------------------+
|        5010|  4.3177e+01|  4.3177e+01|   -9.931718|  3.1152e-06|    0.097594|
|        5020|  4.3177e+01|  4.3177e+01|   -9.934434|  3.0973e-06|    0.097597|
|        5030|  4.3177e+01|  4.3177e+01|   -9.937147|  3.0794e-06|    0.097600|
|        5040|  4.3177e+01|  4.3177e+01|   -9.939855|  3.0617e-06|    0.097603|
|        5050|  4.3177e+01|  4.3177e+01|   -9.942561|  3.0441e-06|    0.097606|
|        5060|  4.3177e+01|  4.3177e+01|   -9.945264|  3.0265e-06|    0.097609|
|        5070|  4.3177e+01|  4.3177e+01|   -9.947964|  3.0091e-06|    0.097611|
|        5080|  4.3177e+01|  4.3177e+01|   -9.950660|  2.9918e-06|    0.097614|
|        5090|  4.3177e+01|  4.3177e+01|   -9.953351|  2.9746e-06|    0.097617|
|        5100|  4.3177e+01|  4.3177e+01|   -9.956037|  2.9575e-06|    0.097620|
|        5110|  4.3177e+01|  4.3177e+01|   -9.958717|  2.9404e-06|    0.097622|
|        5120|  4.3177e+01|  4.3177e+01|   -9.961394|  2.9235e-06|    0.097625|
|        5130|  4.3177e+01|  4.3177e+01|   -9.964070|  2.9067e-06|    0.097628|
|        5140|  4.3177e+01|  4.3177e+01|   -9.966744|  2.8899e-06|    0.097631|
|        5150|  4.3177e+01|  4.3177e+01|   -9.969418|  2.8733e-06|    0.097633|
|        5160|  4.3177e+01|  4.3177e+01|   -9.972090|  2.8567e-06|    0.097636|
|        5170|  4.3177e+01|  4.3177e+01|   -9.974759|  2.8403e-06|    0.097639|
|        5180|  4.3177e+01|  4.3177e+01|   -9.977423|  2.8239e-06|    0.097641|
|        5190|  4.3177e+01|  4.3177e+01|   -9.980082|  2.8077e-06|    0.097644|
|        5200|  4.3177e+01|  4.3177e+01|   -9.982736|  2.7915e-06|    0.097646|
+-----------------------------------------------------------------------+
|        File Writing Summary       |              Filename             |
+-----------------------------------------------------------------------+
|SU2 binary restart                 |restart_flow_G7.dat                |
|Paraview                           |flow_G7.vtu                        |
|Paraview surface                   |surface_flow_G7.vtu                |
+-----------------------------------------------------------------------+
+-----------------------------------------------------------------------------+
|  Inner_Iter|     Min CFL|     Max CFL|      rms[P]|  Cauchy[CD]|          CD|
+-----------------------------------------------------------------------------+
|        5210|  4.3177e+01|  4.3177e+01|   -9.985386|  2.7755e-06|    0.097649|
|        5220|  4.3177e+01|  4.3177e+01|   -9.988034|  2.7595e-06|    0.097652|
|        5230|  4.3177e+01|  4.3177e+01|   -9.990680|  2.7436e-06|    0.097654|
|        5240|  4.3177e+01|  4.3177e+01|   -9.993325|  2.7279e-06|    0.097657|
|        5250|  4.3177e+01|  4.3177e+01|   -9.995967|  2.7122e-06|    0.097659|
|        5260|  4.3177e+01|  4.3177e+01|   -9.998607|  2.6966e-06|    0.097662|
|        5270|  4.3177e+01|  4.3177e+01|  -10.001245|  2.6811e-06|    0.097664|
|        5280|  4.3177e+01|  4.3177e+01|  -10.003879|  2.6657e-06|    0.097667|
|        5290|  4.3177e+01|  4.3177e+01|  -10.006510|  2.6504e-06|    0.097669|
|        5300|  4.3177e+01|  4.3177e+01|  -10.009138|  2.6352e-06|    0.097672|
|        5310|  4.3177e+01|  4.3177e+01|  -10.011764|  2.6200e-06|    0.097674|
|        5320|  4.3177e+01|  4.3177e+01|  -10.014389|  2.6050e-06|    0.097677|
|        5330|  4.3177e+01|  4.3177e+01|  -10.017012|  2.5900e-06|    0.097679|
|        5340|  4.3177e+01|  4.3177e+01|  -10.019634|  2.5752e-06|    0.097681|
|        5350|  4.3177e+01|  4.3177e+01|  -10.022255|  2.5604e-06|    0.097684|
|        5360|  4.3177e+01|  4.3177e+01|  -10.024874|  2.5457e-06|    0.097686|
|        5370|  4.3177e+01|  4.3177e+01|  -10.027492|  2.5312e-06|    0.097688|
|        5380|  4.3177e+01|  4.3177e+01|  -10.030109|  2.5167e-06|    0.097691|
|        5390|  4.3177e+01|  4.3177e+01|  -10.032724|  2.5023e-06|    0.097693|
|        5400|  4.3177e+01|  4.3177e+01|  -10.035338|  2.4880e-06|    0.097695|
+-----------------------------------------------------------------------+
|        File Writing Summary       |              Filename             |
+-----------------------------------------------------------------------+
|SU2 binary restart                 |restart_flow_G7.dat                |
|Paraview                           |flow_G7.vtu                        |
|Paraview surface                   |surface_flow_G7.vtu                |
+-----------------------------------------------------------------------+
+-----------------------------------------------------------------------------+
|  Inner_Iter|     Min CFL|     Max CFL|      rms[P]|  Cauchy[CD]|          CD|
+-----------------------------------------------------------------------------+
|        5410|  4.3177e+01|  4.3177e+01|  -10.037951|  2.4738e-06|    0.097698|
|        5420|  4.3177e+01|  4.3177e+01|  -10.040561|  2.4597e-06|    0.097700|
|        5430|  4.3177e+01|  4.3177e+01|  -10.043170|  2.4456e-06|    0.097702|
|        5440|  4.3177e+01|  4.3177e+01|  -10.045777|  2.4317e-06|    0.097705|
|        5450|  4.3177e+01|  4.3177e+01|  -10.048384|  2.4178e-06|    0.097707|
|        5460|  4.3177e+01|  4.3177e+01|  -10.050990|  2.4040e-06|    0.097709|
|        5470|  4.3177e+01|  4.3177e+01|  -10.053596|  2.3903e-06|    0.097711|
|        5480|  4.3177e+01|  4.3177e+01|  -10.056203|  2.3767e-06|    0.097714|
|        5490|  4.3177e+01|  4.3177e+01|  -10.058810|  2.3632e-06|    0.097716|
|        5500|  4.3177e+01|  4.3177e+01|  -10.061417|  2.3497e-06|    0.097718|
|        5510|  4.3177e+01|  4.3177e+01|  -10.064023|  2.3364e-06|    0.097720|
|        5520|  4.3177e+01|  4.3177e+01|  -10.066626|  2.3231e-06|    0.097722|
|        5530|  4.3177e+01|  4.3177e+01|  -10.069228|  2.3099e-06|    0.097724|
|        5540|  4.3177e+01|  4.3177e+01|  -10.071828|  2.2967e-06|    0.097727|
|        5550|  4.3177e+01|  4.3177e+01|  -10.074427|  2.2837e-06|    0.097729|
|        5560|  4.3177e+01|  4.3177e+01|  -10.077026|  2.2707e-06|    0.097731|
|        5570|  4.3177e+01|  4.3177e+01|  -10.079625|  2.2578e-06|    0.097733|
|        5580|  4.3177e+01|  4.3177e+01|  -10.082225|  2.2450e-06|    0.097735|
|        5590|  4.3177e+01|  4.3177e+01|  -10.084824|  2.2322e-06|    0.097737|
|        5600|  4.3177e+01|  4.3177e+01|  -10.087424|  2.2195e-06|    0.097739|
+-----------------------------------------------------------------------+
|        File Writing Summary       |              Filename             |
+-----------------------------------------------------------------------+
|SU2 binary restart                 |restart_flow_G7.dat                |
|Paraview                           |flow_G7.vtu                        |
|Paraview surface                   |surface_flow_G7.vtu                |
+-----------------------------------------------------------------------+
+-----------------------------------------------------------------------------+
|  Inner_Iter|     Min CFL|     Max CFL|      rms[P]|  Cauchy[CD]|          CD|
+-----------------------------------------------------------------------------+
|        5610|  4.3177e+01|  4.3177e+01|  -10.090022|  2.2069e-06|    0.097741|
|        5620|  4.3177e+01|  4.3177e+01|  -10.092619|  2.1944e-06|    0.097743|
|        5630|  4.3177e+01|  4.3177e+01|  -10.095214|  2.1819e-06|    0.097745|
|        5640|  4.3177e+01|  4.3177e+01|  -10.097807|  2.1696e-06|    0.097747|
|        5650|  4.3177e+01|  4.3177e+01|  -10.100401|  2.1572e-06|    0.097749|
|        5660|  4.3177e+01|  4.3177e+01|  -10.102994|  2.1450e-06|    0.097751|
|        5670|  4.3177e+01|  4.3177e+01|  -10.105587|  2.1329e-06|    0.097753|
|        5680|  4.3177e+01|  4.3177e+01|  -10.108179|  2.1208e-06|    0.097755|
|        5690|  4.3177e+01|  4.3177e+01|  -10.110770|  2.1088e-06|    0.097757|
|        5700|  4.3177e+01|  4.3177e+01|  -10.113361|  2.0968e-06|    0.097759|
|        5710|  4.3177e+01|  4.3177e+01|  -10.115950|  2.0850e-06|    0.097761|
|        5720|  4.3177e+01|  4.3177e+01|  -10.118538|  2.0732e-06|    0.097763|
|        5730|  4.3177e+01|  4.3177e+01|  -10.121125|  2.0614e-06|    0.097765|
|        5740|  4.3177e+01|  4.3177e+01|  -10.123711|  2.0498e-06|    0.097767|
|        5750|  4.3177e+01|  4.3177e+01|  -10.126296|  2.0381e-06|    0.097769|
|        5760|  4.3177e+01|  4.3177e+01|  -10.128880|  2.0266e-06|    0.097771|
|        5770|  4.3177e+01|  4.3177e+01|  -10.131463|  2.0151e-06|    0.097773|
|        5780|  4.3177e+01|  4.3177e+01|  -10.134046|  2.0037e-06|    0.097775|
|        5790|  4.3177e+01|  4.3177e+01|  -10.136629|  1.9924e-06|    0.097776|
|        5800|  4.3177e+01|  4.3177e+01|  -10.139211|  1.9811e-06|    0.097778|
+-----------------------------------------------------------------------+
|        File Writing Summary       |              Filename             |
+-----------------------------------------------------------------------+
|SU2 binary restart                 |restart_flow_G7.dat                |
|Paraview                           |flow_G7.vtu                        |
|Paraview surface                   |surface_flow_G7.vtu                |
+-----------------------------------------------------------------------+
+-----------------------------------------------------------------------------+
|  Inner_Iter|     Min CFL|     Max CFL|      rms[P]|  Cauchy[CD]|          CD|
+-----------------------------------------------------------------------------+
|        5810|  4.3177e+01|  4.3177e+01|  -10.141793|  1.9699e-06|    0.097780|
|        5820|  4.3177e+01|  4.3177e+01|  -10.144374|  1.9588e-06|    0.097782|
|        5830|  4.3177e+01|  4.3177e+01|  -10.146954|  1.9477e-06|    0.097784|
|        5840|  4.3177e+01|  4.3177e+01|  -10.149533|  1.9366e-06|    0.097786|
|        5850|  4.3177e+01|  4.3177e+01|  -10.152111|  1.9257e-06|    0.097787|
|        5860|  4.3177e+01|  4.3177e+01|  -10.154688|  1.9147e-06|    0.097789|
|        5870|  4.3177e+01|  4.3177e+01|  -10.157264|  1.9039e-06|    0.097791|
|        5880|  4.3177e+01|  4.3177e+01|  -10.159839|  1.8931e-06|    0.097793|
|        5890|  4.3177e+01|  4.3177e+01|  -10.162414|  1.8823e-06|    0.097794|
|        5900|  4.3177e+01|  4.3177e+01|  -10.164989|  1.8716e-06|    0.097796|
|        5910|  4.3177e+01|  4.3177e+01|  -10.167564|  1.8610e-06|    0.097798|
|        5920|  4.3177e+01|  4.3177e+01|  -10.170137|  1.8504e-06|    0.097800|
|        5930|  4.3177e+01|  4.3177e+01|  -10.172710|  1.8399e-06|    0.097801|
|        5940|  4.3177e+01|  4.3177e+01|  -10.175281|  1.8294e-06|    0.097803|
|        5950|  4.3177e+01|  4.3177e+01|  -10.177852|  1.8190e-06|    0.097805|
|        5960|  4.3177e+01|  4.3177e+01|  -10.180423|  1.8086e-06|    0.097806|
|        5970|  4.3177e+01|  4.3177e+01|  -10.182992|  1.7983e-06|    0.097808|
|        5980|  4.3177e+01|  4.3177e+01|  -10.185560|  1.7881e-06|    0.097810|
|        5990|  4.3177e+01|  4.3177e+01|  -10.188128|  1.7779e-06|    0.097811|
|        6000|  4.3177e+01|  4.3177e+01|  -10.190694|  1.7678e-06|    0.097813|
+-----------------------------------------------------------------------+
|        File Writing Summary       |              Filename             |
+-----------------------------------------------------------------------+
|SU2 binary restart                 |restart_flow_G7.dat                |
|Paraview                           |flow_G7.vtu                        |
|Paraview surface                   |surface_flow_G7.vtu                |
+-----------------------------------------------------------------------+
+-----------------------------------------------------------------------------+
|  Inner_Iter|     Min CFL|     Max CFL|      rms[P]|  Cauchy[CD]|          CD|
+-----------------------------------------------------------------------------+
|        6010|  4.3177e+01|  4.3177e+01|  -10.193260|  1.7577e-06|    0.097815|
|        6020|  4.3177e+01|  4.3177e+01|  -10.195824|  1.7477e-06|    0.097816|
|        6030|  4.3177e+01|  4.3177e+01|  -10.198387|  1.7377e-06|    0.097818|
|        6040|  4.3177e+01|  4.3177e+01|  -10.200949|  1.7278e-06|    0.097820|
|        6050|  4.3177e+01|  4.3177e+01|  -10.203510|  1.7180e-06|    0.097821|
|        6060|  4.3177e+01|  4.3177e+01|  -10.206070|  1.7082e-06|    0.097823|
|        6070|  4.3177e+01|  4.3177e+01|  -10.208629|  1.6984e-06|    0.097824|
|        6080|  4.3177e+01|  4.3177e+01|  -10.211187|  1.6888e-06|    0.097826|
|        6090|  4.3177e+01|  4.3177e+01|  -10.213744|  1.6791e-06|    0.097828|
|        6100|  4.3177e+01|  4.3177e+01|  -10.216300|  1.6696e-06|    0.097829|
|        6110|  4.3177e+01|  4.3177e+01|  -10.218855|  1.6601e-06|    0.097831|
|        6120|  4.3177e+01|  4.3177e+01|  -10.221408|  1.6506e-06|    0.097832|
|        6130|  4.3177e+01|  4.3177e+01|  -10.223959|  1.6412e-06|    0.097834|
|        6140|  4.3177e+01|  4.3177e+01|  -10.226510|  1.6318e-06|    0.097835|
|        6150|  4.3177e+01|  4.3177e+01|  -10.229059|  1.6225e-06|    0.097837|
|        6160|  4.3177e+01|  4.3177e+01|  -10.231607|  1.6133e-06|    0.097838|
|        6170|  4.3177e+01|  4.3177e+01|  -10.234154|  1.6041e-06|    0.097840|
|        6180|  4.3177e+01|  4.3177e+01|  -10.236701|  1.5949e-06|    0.097841|
|        6190|  4.3177e+01|  4.3177e+01|  -10.239246|  1.5858e-06|    0.097843|
|        6200|  4.3177e+01|  4.3177e+01|  -10.241791|  1.5768e-06|    0.097844|
+-----------------------------------------------------------------------+
|        File Writing Summary       |              Filename             |
+-----------------------------------------------------------------------+
|SU2 binary restart                 |restart_flow_G7.dat                |
|Paraview                           |flow_G7.vtu                        |
|Paraview surface                   |surface_flow_G7.vtu                |
+-----------------------------------------------------------------------+
+-----------------------------------------------------------------------------+
|  Inner_Iter|     Min CFL|     Max CFL|      rms[P]|  Cauchy[CD]|          CD|
+-----------------------------------------------------------------------------+
|        6210|  4.3177e+01|  4.3177e+01|  -10.244334|  1.5678e-06|    0.097846|
|        6220|  4.3177e+01|  4.3177e+01|  -10.246876|  1.5589e-06|    0.097847|
|        6230|  4.3177e+01|  4.3177e+01|  -10.249416|  1.5500e-06|    0.097849|
|        6240|  4.3177e+01|  4.3177e+01|  -10.251956|  1.5412e-06|    0.097850|
|        6250|  4.3177e+01|  4.3177e+01|  -10.254495|  1.5324e-06|    0.097851|
|        6260|  4.3177e+01|  4.3177e+01|  -10.257032|  1.5236e-06|    0.097853|
|        6270|  4.3177e+01|  4.3177e+01|  -10.259570|  1.5150e-06|    0.097854|
|        6280|  4.3177e+01|  4.3177e+01|  -10.262106|  1.5063e-06|    0.097856|
|        6290|  4.3177e+01|  4.3177e+01|  -10.264642|  1.4978e-06|    0.097857|
|        6300|  4.3177e+01|  4.3177e+01|  -10.267178|  1.4892e-06|    0.097858|
|        6310|  4.3177e+01|  4.3177e+01|  -10.269712|  1.4807e-06|    0.097860|
|        6320|  4.3177e+01|  4.3177e+01|  -10.272246|  1.4723e-06|    0.097861|
|        6330|  4.3177e+01|  4.3177e+01|  -10.274780|  1.4639e-06|    0.097863|
|        6340|  4.3177e+01|  4.3177e+01|  -10.277313|  1.4556e-06|    0.097864|
|        6350|  4.3177e+01|  4.3177e+01|  -10.279845|  1.4473e-06|    0.097865|
|        6360|  4.3177e+01|  4.3177e+01|  -10.282377|  1.4390e-06|    0.097867|
|        6370|  4.3177e+01|  4.3177e+01|  -10.284908|  1.4308e-06|    0.097868|
|        6380|  4.3177e+01|  4.3177e+01|  -10.287439|  1.4227e-06|    0.097869|
|        6390|  4.3177e+01|  4.3177e+01|  -10.289969|  1.4146e-06|    0.097871|
|        6400|  4.3177e+01|  4.3177e+01|  -10.292499|  1.4065e-06|    0.097872|
+-----------------------------------------------------------------------+
|        File Writing Summary       |              Filename             |
+-----------------------------------------------------------------------+
|SU2 binary restart                 |restart_flow_G7.dat                |
|Paraview                           |flow_G7.vtu                        |
|Paraview surface                   |surface_flow_G7.vtu                |
+-----------------------------------------------------------------------+
+-----------------------------------------------------------------------------+
|  Inner_Iter|     Min CFL|     Max CFL|      rms[P]|  Cauchy[CD]|          CD|
+-----------------------------------------------------------------------------+
|        6410|  4.3177e+01|  4.3177e+01|  -10.295028|  1.3985e-06|    0.097873|
|        6420|  4.3177e+01|  4.3177e+01|  -10.297557|  1.3906e-06|    0.097875|
|        6430|  4.3177e+01|  4.3177e+01|  -10.300086|  1.3826e-06|    0.097876|
|        6440|  4.3177e+01|  4.3177e+01|  -10.302614|  1.3748e-06|    0.097877|
|        6450|  4.3177e+01|  4.3177e+01|  -10.305141|  1.3669e-06|    0.097878|
|        6460|  4.3177e+01|  4.3177e+01|  -10.307668|  1.3591e-06|    0.097880|
|        6470|  4.3177e+01|  4.3177e+01|  -10.310195|  1.3514e-06|    0.097881|
|        6480|  4.3177e+01|  4.3177e+01|  -10.312722|  1.3437e-06|    0.097882|
|        6490|  4.3177e+01|  4.3177e+01|  -10.315248|  1.3361e-06|    0.097883|
|        6500|  4.3177e+01|  4.3177e+01|  -10.317774|  1.3284e-06|    0.097885|
|        6510|  4.3177e+01|  4.3177e+01|  -10.320300|  1.3209e-06|    0.097886|
|        6520|  4.3177e+01|  4.3177e+01|  -10.322825|  1.3134e-06|    0.097887|
|        6530|  4.3177e+01|  4.3177e+01|  -10.325350|  1.3059e-06|    0.097888|
|        6540|  4.3177e+01|  4.3177e+01|  -10.327874|  1.2984e-06|    0.097890|
|        6550|  4.3177e+01|  4.3177e+01|  -10.330397|  1.2910e-06|    0.097891|
|        6560|  4.3177e+01|  4.3177e+01|  -10.332920|  1.2837e-06|    0.097892|
|        6570|  4.3177e+01|  4.3177e+01|  -10.335443|  1.2764e-06|    0.097893|
|        6580|  4.3177e+01|  4.3177e+01|  -10.337965|  1.2691e-06|    0.097894|
|        6590|  4.3177e+01|  4.3177e+01|  -10.340487|  1.2619e-06|    0.097895|
|        6600|  4.3177e+01|  4.3177e+01|  -10.343009|  1.2547e-06|    0.097897|
+-----------------------------------------------------------------------+
|        File Writing Summary       |              Filename             |
+-----------------------------------------------------------------------+
|SU2 binary restart                 |restart_flow_G7.dat                |
|Paraview                           |flow_G7.vtu                        |
|Paraview surface                   |surface_flow_G7.vtu                |
+-----------------------------------------------------------------------+
+-----------------------------------------------------------------------------+
|  Inner_Iter|     Min CFL|     Max CFL|      rms[P]|  Cauchy[CD]|          CD|
+-----------------------------------------------------------------------------+
|        6610|  4.3177e+01|  4.3177e+01|  -10.345531|  1.2475e-06|    0.097898|
|        6620|  4.3177e+01|  4.3177e+01|  -10.348052|  1.2404e-06|    0.097899|
|        6630|  4.3177e+01|  4.3177e+01|  -10.350572|  1.2334e-06|    0.097900|
|        6640|  4.3177e+01|  4.3177e+01|  -10.353092|  1.2263e-06|    0.097901|
|        6650|  4.3177e+01|  4.3177e+01|  -10.355612|  1.2193e-06|    0.097902|
|        6660|  4.3177e+01|  4.3177e+01|  -10.358131|  1.2124e-06|    0.097904|
|        6670|  4.3177e+01|  4.3177e+01|  -10.360649|  1.2055e-06|    0.097905|
|        6680|  4.3177e+01|  4.3177e+01|  -10.363167|  1.1986e-06|    0.097906|
|        6690|  4.3177e+01|  4.3177e+01|  -10.365684|  1.1918e-06|    0.097907|
|        6700|  4.3177e+01|  4.3177e+01|  -10.368201|  1.1850e-06|    0.097908|
|        6710|  4.3177e+01|  4.3177e+01|  -10.370716|  1.1783e-06|    0.097909|
|        6720|  4.3177e+01|  4.3177e+01|  -10.373232|  1.1716e-06|    0.097910|
|        6730|  4.3177e+01|  4.3177e+01|  -10.375747|  1.1649e-06|    0.097911|
|        6740|  4.3177e+01|  4.3177e+01|  -10.378262|  1.1583e-06|    0.097912|
|        6750|  4.3177e+01|  4.3177e+01|  -10.380776|  1.1517e-06|    0.097913|
|        6760|  4.3177e+01|  4.3177e+01|  -10.383290|  1.1451e-06|    0.097915|
|        6770|  4.3177e+01|  4.3177e+01|  -10.385804|  1.1386e-06|    0.097916|
|        6780|  4.3177e+01|  4.3177e+01|  -10.388318|  1.1321e-06|    0.097917|
|        6790|  4.3177e+01|  4.3177e+01|  -10.390831|  1.1257e-06|    0.097918|
|        6800|  4.3177e+01|  4.3177e+01|  -10.393343|  1.1193e-06|    0.097919|
+-----------------------------------------------------------------------+
|        File Writing Summary       |              Filename             |
+-----------------------------------------------------------------------+
|SU2 binary restart                 |restart_flow_G7.dat                |
|Paraview                           |flow_G7.vtu                        |
|Paraview surface                   |surface_flow_G7.vtu                |
+-----------------------------------------------------------------------+
+-----------------------------------------------------------------------------+
|  Inner_Iter|     Min CFL|     Max CFL|      rms[P]|  Cauchy[CD]|          CD|
+-----------------------------------------------------------------------------+
|        6810|  4.3177e+01|  4.3177e+01|  -10.395855|  1.1129e-06|    0.097920|
|        6820|  4.3177e+01|  4.3177e+01|  -10.398367|  1.1066e-06|    0.097921|
|        6830|  4.3177e+01|  4.3177e+01|  -10.400878|  1.1003e-06|    0.097922|
|        6840|  4.3177e+01|  4.3177e+01|  -10.403389|  1.0940e-06|    0.097923|
|        6850|  4.3177e+01|  4.3177e+01|  -10.405899|  1.0878e-06|    0.097924|
|        6860|  4.3177e+01|  4.3177e+01|  -10.408409|  1.0816e-06|    0.097925|
|        6870|  4.3177e+01|  4.3177e+01|  -10.410919|  1.0755e-06|    0.097926|
|        6880|  4.3177e+01|  4.3177e+01|  -10.413428|  1.0693e-06|    0.097927|
|        6890|  4.3177e+01|  4.3177e+01|  -10.415938|  1.0633e-06|    0.097928|
|        6900|  4.3177e+01|  4.3177e+01|  -10.418447|  1.0572e-06|    0.097929|
|        6910|  4.3177e+01|  4.3177e+01|  -10.420956|  1.0512e-06|    0.097930|
|        6920|  4.3177e+01|  4.3177e+01|  -10.423465|  1.0452e-06|    0.097931|
|        6930|  4.3177e+01|  4.3177e+01|  -10.425973|  1.0393e-06|    0.097932|
|        6940|  4.3177e+01|  4.3177e+01|  -10.428481|  1.0334e-06|    0.097933|
|        6950|  4.3177e+01|  4.3177e+01|  -10.430989|  1.0275e-06|    0.097934|
|        6960|  4.3177e+01|  4.3177e+01|  -10.433497|  1.0217e-06|    0.097935|
|        6970|  4.3177e+01|  4.3177e+01|  -10.436005|  1.0159e-06|    0.097936|
|        6980|  4.3177e+01|  4.3177e+01|  -10.438513|  1.0101e-06|    0.097937|
|        6990|  4.3177e+01|  4.3177e+01|  -10.441020|  1.0043e-06|    0.097937|
|        6998|  4.3177e+01|  4.3177e+01|  -10.443026|  9.9977e-07|    0.097938|

----------------------------- Solver Exit -------------------------------
All convergence criteria satisfied.
+-----------------------------------------------------------------------+
|      Convergence Field     |     Value    |   Criterion  |  Converged |
+-----------------------------------------------------------------------+
|                      rms[P]|       -10.443|          < -9|         Yes|
|                  Cauchy[CD]|   9.99774e-07|       < 1e-06|         Yes|
+-----------------------------------------------------------------------+
-------------------------------------------------------------------------
+-----------------------------------------------------------------------+
|        File Writing Summary       |              Filename             |
+-----------------------------------------------------------------------+
|SU2 binary restart                 |restart_flow_G7.dat                |
|Paraview                           |flow_G7.vtu                        |
|Paraview surface                   |surface_flow_G7.vtu                |
+-----------------------------------------------------------------------+

------------------------- Solver Postprocessing -------------------------
Deleted CNumerics container.
Deleted CIntegration container.
Deleted CSolver container.
Deleted CIteration container.
Deleted CInterface container.
Deleted CGeometry container.
Deleted CFreeFormDefBox class.
Deleted CSurfaceMovement class.
Deleted CVolumetricMovement class.
Deleted CConfig container.
Deleted nInst container.
Deleted COutput class.
-------------------------------------------------------------------------

------------------------- Exit Success (SU2_CFD) ------------------------

