
-------------------------------------------------------------------------
|    ___ _   _ ___                                                      |
|   / __| | | |_  )   Release 7.4.0 "Blackbird"                         |
|   \__ \ |_| |/ /                                                      |
|   |___/\___//___|   Suite (Computational Fluid Dynamics Code)         |
|                                                                       |
-------------------------------------------------------------------------
| SU2 Project Website: https://su2code.github.io                        |
|                                                                       |
| The SU2 Project is maintained by the SU2 Foundation                   |
| (http://su2foundation.org)                                            |
-------------------------------------------------------------------------
| Copyright 2012-2022, SU2 Contributors                                 |
|                                                                       |
| SU2 is free software; you can redistribute it and/or                  |
| modify it under the terms of the GNU Lesser General Public            |
| License as published by the Free Software Foundation; either          |
| version 2.1 of the License, or (at your option) any later version.    |
|                                                                       |
| SU2 is distributed in the hope that it will be useful,                |
| but WITHOUT ANY WARRANTY; without even the implied warranty of        |
| MERCHANTABILITY or FITNESS FOR A PARTICULAR PURPOSE. See the GNU      |
| Lesser General Public License for more details.                       |
|                                                                       |
| You should have received a copy of the GNU Lesser General Public      |
| License along with SU2. If not, see <http://www.gnu.org/licenses/>.   |
-------------------------------------------------------------------------

Parsing config file for zone 0

----------------- Physical Case Definition ( Zone 0 ) -------------------
Incompressible RANS equations.
Turbulence model: Menter's k-omega SST-2003m with no production modification.
Hybrid RANS/LES: No Hybrid RANS/LES
Reading and writing binary SU2 native restart files.
Read flow solution from: ../../../O1/caseG5/cfdG5/restart_flow_G5.dat.
Non-Dimensional simulation using intialization values.
The reference area is 1 m^2.
The semi-span will be computed using the max y(3D) value.
The reference length is 1.00898 m.
Reference origin for moment evaluation is (-0.756, 0, 0).
Surface(s) where the force coefficients are evaluated: AIRFOIL.

Surface(s) plotted in the output file: AIRFOIL.
Input mesh file name: ../meshG5/meshG5.su2

--------------- Space Numerical Integration ( Zone 0 ) ------------------
Flux difference splitting (FDS) upwind scheme for the flow inviscid terms.
Second order integration in space, with slope limiter.
Venkatakrishnan slope-limiting method, with constant: 0.056.
The reference element size is: 1. 
Average of gradients with correction (viscous flow terms).
Average of gradients with correction (viscous turbulence terms).
Gradient for upwind reconstruction: unweighted Least-Squares.
Gradient for viscous and source terms: Green-Gauss.

--------------- Time Numerical Integration  ( Zone 0 ) ------------------
Local time stepping (steady state simulation).
Euler implicit method for the flow equations.
FGMRES is used for solving the linear system.
Using a ILU(0) preconditioning.
Convergence criteria of the linear solver: 1e-06.
Max number of linear iterations: 10.
CFL adaptation. Factor down: 0.1, factor up: 1.2,
                lower limit: 1, upper limit: 1000,
                acceptable linear residual: 0.001.
Courant-Friedrichs-Lewy number:        2
Euler implicit time integration for the turbulence model.

------------------ Convergence Criteria  ( Zone 0 ) ---------------------
Maximum number of solver subiterations: 20000.
Begin convergence monitoring at iteration 10.
Residual minimum value: 1e-9.
Cauchy series min. value: 1e-06.
Number of Cauchy elements: 250.
Begin windowed time average at iteration 0.

-------------------- Output Information ( Zone 0 ) ----------------------
File writing frequency: 
+------------------------------------+
|                     File| Frequency|
+------------------------------------+
|                  RESTART|       200|
|                 PARAVIEW|       200|
|         SURFACE_PARAVIEW|       200|
+------------------------------------+
Writing the convergence history file every 1 inner iterations.
Writing the screen convergence history every 10 inner iterations.
The tabular file format is CSV (.csv).
Convergence history file name: history_G5.
Forces breakdown file name: forces_breakdown.dat.
Surface file name: surface_flow_G5.
Volume file name: flow_G5.
Restart file name: restart_flow_G5.dat.

------------- Config File Boundary Information ( Zone 0 ) ---------------
+-----------------------------------------------------------------------+
|                        Marker Type|                        Marker Name|
+-----------------------------------------------------------------------+
|                          Far-field|                           FARFIELD|
+-----------------------------------------------------------------------+
|                     Heat flux wall|                            AIRFOIL|
+-----------------------------------------------------------------------+

-------------------- Output Preprocessing ( Zone 0 ) --------------------

WARNING: SURFACE_PRESSURE_DROP can only be computed for at least 2 surfaces (outlet, inlet, ...)

Screen output fields: INNER_ITER, MIN_CFL, MAX_CFL, RMS_PRESSURE, CAUCHY_DRAG, DRAG
History output group(s): INNER_ITER, MIN_CFL, MAX_CFL, RMS_RES, LIFT, DRAG, MOMENT_Z, CAUCHY
Convergence field(s): RMS_PRESSURE, DRAG
Warning: No (valid) fields chosen for time convergence monitoring. Time convergence monitoring inactive.
Volume output fields: COORDINATES, SOLUTION, PRIMITIVE, RESIDUAL, MESH_QUALITY

------------------- Geometry Preprocessing ( Zone 0 ) -------------------
Two dimensional problem.
361479 grid points before partitioning.
360180 volume elements before partitioning.
2 surface markers.
724 boundary elements in index 0 (Marker = AIRFOIL).
1874 boundary elements in index 1 (Marker = FARFIELD).
Executing the partitioning functions.
Building the graph adjacency structure.
Calling ParMETIS... graph partitioning complete (4050 edge cuts).
Distributing ParMETIS coloring.
Rebalancing vertices.
Rebalancing volume element connectivity.
Rebalancing markers and surface elements.
369602 vertices including ghost points. 
364230 interior elements including halo cells. 
364230 quadrilaterals.
Establishing MPI communication patterns.
Setting point connectivity.
Renumbering points (Reverse Cuthill McKee Ordering).
Recomputing point connectivity.
Setting element connectivity.
Checking the numerical grid orientation.
All volume elements are correctly orientend.
There has been a re-orientation of 1305 LINE surface elements.
Identifying edges and vertices.
Setting the control volume structure.
Area of the computational grid: 103207.
Searching for the closest normal neighbors to the surfaces.
Storing a mapping from global to local point index.
Compute the surface curvature.
Max K: 227502. Mean K: 205.598. Standard deviation K: 4719.73.
Checking for periodicity.
Computing mesh quality statistics for the dual control volumes.
+--------------------------------------------------------------+
|           Mesh Quality Metric|        Minimum|        Maximum|
+--------------------------------------------------------------+
|    Orthogonality Angle (deg.)|        75.9136|             90|
|     CV Face Area Aspect Ratio|        1.00002|    3.17894e+06|
|           CV Sub-Volume Ratio|              1|         387.07|
+--------------------------------------------------------------+
Finding max control volume width.
Communicating number of neighbors.
Wetted area = 2.0597 m.
Area projection in the x-plane = 0.121116 m, y-plane = 1.00881 m.
Max. coordinate in the x-direction = 1.00898 m, y-direction = 0.0759837 m.
Min. coordinate in the x-direction = 4.86614e-06 m, y-direction = -0.0451345 m.
Computing wall distances.

-------------------- Solver Preprocessing ( Zone 0 ) --------------------
 Warning: There is no restart file (flow.meta).
 Computation will continue without updating metadata parameters.
Incompressible flow: rho_ref, vel_ref, and temp_ref
are based on the initial values, p_ref = rho_ref*vel_ref^2.
Force coefficients computed using initial values.
The reference area for force coeffs. is 1 m^2.
The reference length for force coeffs. is 1.00898 m.
The pressure is decomposed into thermodynamic and dynamic components.
The initial value of the dynamic pressure is 0.
Mach number: 0.0276747, computed using the Bulk modulus.
For external flows, the initial state is imposed at the far-field.
Angle of attack (deg): 14, computed using the initial velocity.
Side slip angle (deg): 0, computed using the initial velocity.
Reynolds number per meter: 594999, computed using initial values.
Reynolds number is a byproduct of inputs only (not used internally).
SI units only. The grid should be dimensional (meters).
No energy equation.

-- Models:
+------------------------------------------------------------------------------+
|          Viscosity Model|        Conductivity Model|              Fluid Model|
+------------------------------------------------------------------------------+
|       CONSTANT_VISCOSITY|          CONSTANT_PRANDTL|         CONSTANT_DENSITY|
+------------------------------------------------------------------------------+
-- Fluid properties:
+------------------------------------------------------------------------------+
|                  Name|    Dim. value|    Ref. value|      Unit|Non-dim. value|
+------------------------------------------------------------------------------+
|             Viscosity|      1.92e-05|        11.424|   N.s/m^2|   1.68067e-06|
+------------------------------------------------------------------------------+
|        Prandtl (Lam.)|             -|             -|         -|          0.72|
|       Prandtl (Turb.)|             -|             -|         -|           0.9|
+------------------------------------------------------------------------------+
|          Bulk Modulus|        142000|             1|        Pa|        142000|
+------------------------------------------------------------------------------+
-- Initial and free-stream conditions:
+------------------------------------------------------------------------------+
|                  Name|    Dim. value|    Ref. value|      Unit|Non-dim. value|
+------------------------------------------------------------------------------+
|      Dynamic Pressure|             0|       108.756|        Pa|             0|
|        Total Pressure|       54.3781|       108.756|        Pa|           0.5|
|               Density|           1.2|           1.2|    kg/m^3|             1|
|            Velocity-X|        9.2372|       9.51999|       m/s|      0.970296|
|            Velocity-Y|        2.3031|       9.51999|       m/s|      0.241923|
|    Velocity Magnitude|       9.51999|       9.51999|       m/s|             1|
+------------------------------------------------------------------------------+
|             Viscosity|      1.92e-05|        11.424|   N.s/m^2|   1.68067e-06|
|          Conductivity|             -|       3.59312|   W/m^2.K|             -|
|     Turb. Kin. Energy|       1.35945|       90.6301|   m^2/s^2|         0.015|
|     Spec. Dissipation|       8496.58|       9.51999|       1/s|       892.499|
+------------------------------------------------------------------------------+
|           Mach Number|             -|             -|         -|     0.0276747|
|       Reynolds Number|             -|             -|         -|        594999|
+------------------------------------------------------------------------------+
Initialize Jacobian structure (Navier-Stokes). MG level: 0.
Initialize Jacobian structure (SST model).

------------------- Numerics Preprocessing ( Zone 0 ) -------------------

----------------- Integration Preprocessing ( Zone 0 ) ------------------

------------------- Iteration Preprocessing ( Zone 0 ) ------------------
Euler/Navier-Stokes/RANS fluid iteration.

------------------------------ Begin Solver -----------------------------

Simulation Run using the Single-zone Driver
+-----------------------------------------------------------------------------+
|  Inner_Iter|     Min CFL|     Max CFL|      rms[P]|  Cauchy[CD]|          CD|
+-----------------------------------------------------------------------------+
|           0|  2.4000e+00|  2.4000e+00|   -6.431676|  1.0000e+00|    0.101706|
|          10|  1.4860e+01|  1.4860e+01|   -6.427074|  9.7629e-05|    0.099253|
|          20|  5.3247e+01|  5.3247e+01|   -6.781730|  1.6210e-03|    0.061168|
|          30|  1.5899e+01|  1.5899e+01|   -6.850628|  1.9064e-03|    0.054208|
|          40|  8.2037e+00|  8.2037e+00|   -6.760087|  2.0251e-03|    0.057175|
|          50|  5.0795e+01|  5.0795e+01|   -6.806168|  2.0539e-03|    0.057896|
|          60|  2.6209e+01|  2.6209e+01|   -6.876185|  2.0640e-03|    0.058026|
|          70|  1.3523e+01|  1.3523e+01|   -6.836845|  2.1270e-03|    0.056451|
|          80|  6.9778e+01|  6.9778e+01|   -6.875160|  2.1858e-03|    0.054981|
|          90|  1.0048e+01|  1.0048e+01|   -6.936276|  2.2594e-03|    0.056821|
|         100|  6.2215e+01|  6.2215e+01|   -7.030758|  2.2711e-03|    0.056965|
|         110|  3.2101e+01|  3.2101e+01|   -7.107252|  2.3056e-03|    0.056102|
|         120|  1.6564e+01|  1.6564e+01|   -7.126528|  2.3730e-03|    0.054419|
|         130|  5.9350e+00|  5.9350e+00|   -7.121779|  2.4582e-03|    0.052288|
|         140|  3.6748e+01|  3.6748e+01|   -7.137016|  2.4819e-03|    0.051695|
|         150|  5.2917e+01|  5.2917e+01|   -7.182714|  2.5087e-03|    0.051483|
|         160|  5.2917e+01|  5.2917e+01|   -7.171456|  2.5687e-03|    0.052983|
|         170|  2.2754e+01|  2.2754e+01|   -7.171455|  2.5763e-03|    0.053173|
|         180|  1.1740e+01|  1.1740e+01|   -7.171892|  2.5956e-03|    0.052690|
|         190|  5.0481e+01|  5.0481e+01|   -7.197246|  2.6491e-03|    0.051354|
|         200|  5.0481e+01|  5.0481e+01|   -7.264874|  2.7182e-03|    0.049626|
+-----------------------------------------------------------------------+
|        File Writing Summary       |              Filename             |
+-----------------------------------------------------------------------+
|SU2 binary restart                 |restart_flow_G5.dat                |
|Paraview                           |flow_G5.vtu                        |
|Paraview surface                   |surface_flow_G5.vtu                |
+-----------------------------------------------------------------------+
+-----------------------------------------------------------------------------+
|  Inner_Iter|     Min CFL|     Max CFL|      rms[P]|  Cauchy[CD]|          CD|
+-----------------------------------------------------------------------------+
|         210|  1.8088e+01|  1.8088e+01|   -7.256406|  2.7250e-03|    0.049716|
|         220|  5.4011e+01|  5.4011e+01|   -7.268477|  2.7507e-03|    0.050359|
|         230|  5.4011e+00|  5.4011e+00|   -7.271038|  2.7684e-03|    0.050120|
|         240|  3.3442e+01|  3.3442e+01|   -7.272292|  2.7785e-03|    0.049868|
|         250|  1.7256e+01|  1.7256e+01|   -7.287408|  2.7953e-03|    0.049449|
|         260|  5.1525e+01|  5.1525e+01|   -7.289089|  2.7171e-03|    0.048962|
|         270|  2.2155e+01|  2.2155e+01|   -7.274180|  1.2048e-03|    0.048685|
|         280|  5.5128e+01|  5.5128e+01|   -7.272187|  9.4584e-04|    0.048025|
|         290|  5.5128e+01|  5.5128e+01|   -7.356889|  8.6310e-04|    0.047126|
|         300|  6.6154e+01|  6.6154e+01|   -7.369137|  8.4875e-04|    0.046764|
|         310|  3.4134e+01|  3.4134e+01|   -7.361867|  8.3904e-04|    0.046757|
|         320|  1.7612e+01|  1.7612e+01|   -7.347190|  7.7644e-04|    0.046767|
|         330|  9.0876e+00|  9.0876e+00|   -7.327837|  7.2115e-04|    0.046679|
|         340|  5.6268e+01|  5.6268e+01|   -7.356465|  6.5552e-04|    0.046480|
|         350|  1.1668e+01|  1.1668e+01|   -7.428500|  6.6415e-04|    0.045971|
|         360|  6.0203e+00|  6.0203e+00|   -7.440749|  6.4839e-04|    0.045503|
|         370|  3.7276e+01|  3.7276e+01|   -7.426272|  5.8944e-04|    0.045293|
|         380|  5.3677e+01|  5.3677e+01|   -7.376073|  5.1971e-04|    0.044906|
|         390|  1.9234e+01|  1.9234e+01|   -7.421422|  4.9826e-04|    0.044849|
|         400|  5.7431e+01|  5.7431e+01|   -7.503111|  4.7322e-04|    0.044806|
+-----------------------------------------------------------------------+
|        File Writing Summary       |              Filename             |
+-----------------------------------------------------------------------+
|SU2 binary restart                 |restart_flow_G5.dat                |
|Paraview                           |flow_G5.vtu                        |
|Paraview surface                   |surface_flow_G5.vtu                |
+-----------------------------------------------------------------------+
+-----------------------------------------------------------------------------+
|  Inner_Iter|     Min CFL|     Max CFL|      rms[P]|  Cauchy[CD]|          CD|
+-----------------------------------------------------------------------------+
|         410|  5.7431e+01|  5.7431e+01|   -7.486627|  4.2167e-04|    0.044595|
|         420|  9.9241e+00|  9.9241e+00|   -7.445708|  4.2473e-04|    0.044328|
|         430|  6.1447e+01|  6.1447e+01|   -7.495243|  4.1115e-04|    0.044184|
|         440|  3.1706e+01|  3.1706e+01|   -7.533128|  3.6186e-04|    0.044081|
|         450|  1.6359e+01|  1.6359e+01|   -7.572055|  2.9898e-04|    0.043925|
|         460|  5.8619e+01|  5.8619e+01|   -7.542030|  2.9956e-04|    0.043739|
|         470|  5.8619e+01|  5.8619e+01|   -7.519409|  2.7836e-04|    0.043626|
|         480|  5.8619e+01|  5.8619e+01|   -7.619659|  2.6262e-04|    0.043675|
|         490|  5.8619e+01|  5.8619e+01|   -7.672469|  2.5550e-04|    0.043609|
|         500|  5.8619e+01|  5.8619e+01|   -7.618916|  2.4774e-04|    0.043383|
|         510|  5.8619e+01|  5.8619e+01|   -7.654384|  2.3605e-04|    0.043188|
|         520|  5.8619e+01|  5.8619e+01|   -7.621943|  2.2996e-04|    0.043064|
|         530|  2.5205e+01|  2.5205e+01|   -7.632592|  2.0552e-04|    0.043014|
|         540|  1.3005e+01|  1.3005e+01|   -7.661610|  1.7142e-04|    0.042968|
|         550|  6.7104e+00|  6.7104e+00|   -7.711724|  1.5913e-04|    0.042913|
|         560|  4.1549e+01|  4.1549e+01|   -7.786976|  1.5997e-04|    0.042884|
|         570|  5.9830e+01|  5.9830e+01|   -7.724936|  1.6524e-04|    0.042742|
|         580|  7.1797e+00|  7.1797e+00|   -7.745624|  1.6950e-04|    0.042547|
|         590|  4.4455e+01|  4.4455e+01|   -7.811956|  1.6429e-04|    0.042478|
|         600|  2.2938e+01|  2.2938e+01|   -7.861153|  1.4762e-04|    0.042386|
+-----------------------------------------------------------------------+
|        File Writing Summary       |              Filename             |
+-----------------------------------------------------------------------+
|SU2 binary restart                 |restart_flow_G5.dat                |
|Paraview                           |flow_G5.vtu                        |
|Paraview surface                   |surface_flow_G5.vtu                |
+-----------------------------------------------------------------------+
+-----------------------------------------------------------------------------+
|  Inner_Iter|     Min CFL|     Max CFL|      rms[P]|  Cauchy[CD]|          CD|
+-----------------------------------------------------------------------------+
|         610|  5.7076e+01|  5.7076e+01|   -7.784265|  1.3450e-04|    0.042246|
|         620|  5.7076e+01|  5.7076e+01|   -7.756373|  1.3055e-04|    0.042135|
|         630|  5.7076e+01|  5.7076e+01|   -7.821155|  1.1641e-04|    0.042103|
|         640|  5.7076e+01|  5.7076e+01|   -7.838453|  1.1619e-04|    0.042155|
|         650|  5.7076e+01|  5.7076e+01|   -7.832730|  1.1838e-04|    0.042252|
|         660|  2.9450e+01|  2.9450e+01|   -7.914180|  1.1122e-04|    0.042285|
|         670|  1.5196e+01|  1.5196e+01|   -7.954187|  1.0246e-04|    0.042333|
|         680|  7.8406e+00|  7.8406e+00|   -7.849334|  9.8428e-05|    0.042375|
|         690|  4.8547e+01|  4.8547e+01|   -7.926344|  9.5572e-05|    0.042408|
|         700|  2.5049e+01|  2.5049e+01|   -7.932405|  9.0557e-05|    0.042438|
|         710|  1.2925e+01|  1.2925e+01|   -7.932767|  8.4592e-05|    0.042475|
|         720|  6.6689e+00|  6.6689e+00|   -7.918023|  8.1915e-05|    0.042521|
|         730|  4.1292e+01|  4.1292e+01|   -7.943636|  8.1129e-05|    0.042551|
|         740|  2.1306e+01|  2.1306e+01|   -7.960993|  7.9117e-05|    0.042574|
|         750|  1.0993e+01|  1.0993e+01|   -7.975577|  7.1422e-05|    0.042607|
|         760|  1.0000e+00|  1.0000e+00|   -7.967936|  6.3846e-05|    0.042612|
|         770|  1.0000e+00|  1.0000e+00|   -7.977210|  5.8931e-05|    0.042614|
|         780|  1.0000e+00|  1.0000e+00|   -7.978907|  5.7018e-05|    0.042616|
|         790|  1.0000e+00|  1.0000e+00|   -7.981108|  5.5226e-05|    0.042617|
|         800|  5.1598e+00|  5.1598e+00|   -7.983879|  5.3176e-05|    0.042621|
+-----------------------------------------------------------------------+
|        File Writing Summary       |              Filename             |
+-----------------------------------------------------------------------+
|SU2 binary restart                 |restart_flow_G5.dat                |
|Paraview                           |flow_G5.vtu                        |
|Paraview surface                   |surface_flow_G5.vtu                |
+-----------------------------------------------------------------------+
+-----------------------------------------------------------------------------+
|  Inner_Iter|     Min CFL|     Max CFL|      rms[P]|  Cauchy[CD]|          CD|
+-----------------------------------------------------------------------------+
|         810|  3.1948e+01|  3.1948e+01|   -7.984013|  5.2851e-05|    0.042642|
|         820|  1.6484e+01|  1.6484e+01|   -7.990439|  4.8306e-05|    0.042670|
|         830|  8.5056e+00|  8.5056e+00|   -7.960600|  4.1375e-05|    0.042692|
|         840|  5.2665e+01|  5.2665e+01|   -7.992621|  3.8915e-05|    0.042699|
|         850|  2.7174e+01|  2.7174e+01|   -8.012277|  3.5384e-05|    0.042696|
|         860|  1.4021e+01|  1.4021e+01|   -8.036100|  3.0559e-05|    0.042676|
|         870|  5.0240e+01|  5.0240e+01|   -8.029602|  2.8375e-05|    0.042620|
|         880|  5.0240e+01|  5.0240e+01|   -8.004088|  3.2748e-05|    0.042477|
|         890|  5.0240e+01|  5.0240e+01|   -7.972581|  3.7767e-05|    0.042299|
|         900|  2.5923e+01|  2.5923e+01|   -7.987718|  3.6086e-05|    0.042244|
|         910|  1.0000e+00|  1.0000e+00|   -7.977464|  3.7732e-05|    0.042171|
|         920|  3.5832e+00|  3.5832e+00|   -7.987129|  3.6047e-05|    0.042165|
|         930|  2.2186e+01|  2.2186e+01|   -7.993286|  3.5630e-05|    0.042132|
|         940|  1.1448e+01|  1.1448e+01|   -7.979062|  3.7510e-05|    0.042053|
|         950|  5.9067e+00|  5.9067e+00|   -7.969629|  3.9106e-05|    0.041983|
|         960|  3.6573e+01|  3.6573e+01|   -7.985388|  3.9257e-05|    0.041942|
|         970|  1.8871e+01|  1.8871e+01|   -7.988468|  3.9440e-05|    0.041892|
|         980|  4.6956e+01|  4.6956e+01|   -7.966524|  4.1600e-05|    0.041808|
|         990|  2.0190e+01|  2.0190e+01|   -7.998351|  4.2372e-05|    0.041766|
|        1000|  1.0418e+01|  1.0418e+01|   -7.970222|  4.2331e-05|    0.041733|
+-----------------------------------------------------------------------+
|        File Writing Summary       |              Filename             |
+-----------------------------------------------------------------------+
|SU2 binary restart                 |restart_flow_G5.dat                |
|Paraview                           |flow_G5.vtu                        |
|Paraview surface                   |surface_flow_G5.vtu                |
+-----------------------------------------------------------------------+
+-----------------------------------------------------------------------------+
|  Inner_Iter|     Min CFL|     Max CFL|      rms[P]|  Cauchy[CD]|          CD|
+-----------------------------------------------------------------------------+
|        1010|  5.3753e+00|  5.3753e+00|   -7.962354|  4.3445e-05|    0.041700|
|        1020|  1.0000e+00|  1.0000e+00|   -7.974365|  4.3625e-05|    0.041694|
|        1030|  1.0000e+00|  1.0000e+00|   -7.976311|  4.3602e-05|    0.041693|
|        1040|  1.0000e+00|  1.0000e+00|   -7.980244|  4.3580e-05|    0.041692|
|        1050|  1.4400e+00|  1.4400e+00|   -7.986698|  4.3493e-05|    0.041691|
|        1060|  8.9161e+00|  8.9161e+00|   -7.990740|  4.2776e-05|    0.041687|
|        1070|  5.5206e+01|  5.5206e+01|   -7.951061|  4.2029e-05|    0.041677|
|        1080|  2.8485e+01|  2.8485e+01|   -7.959926|  4.1408e-05|    0.041672|
|        1090|  1.4698e+01|  1.4698e+01|   -7.959983|  4.1339e-05|    0.041678|
|        1100|  5.2665e+01|  5.2665e+01|   -7.913285|  4.2209e-05|    0.041703|
|        1110|  5.2665e+01|  5.2665e+01|   -7.905658|  4.4139e-05|    0.041771|
|        1120|  1.5726e+01|  1.5726e+01|   -7.963150|  4.3633e-05|    0.041815|
|        1130|  8.1140e+00|  8.1140e+00|   -7.849797|  3.9967e-05|    0.041866|
|        1140|  5.0240e+01|  5.0240e+01|   -7.945381|  3.4259e-05|    0.041901|
|        1150|  2.1602e+01|  2.1602e+01|   -7.973783|  3.3108e-05|    0.041927|
|        1160|  1.0000e+00|  1.0000e+00|   -7.952279|  3.1391e-05|    0.041958|
|        1170|  1.0000e+00|  1.0000e+00|   -7.976685|  3.1208e-05|    0.041959|
|        1180|  6.1917e+00|  6.1917e+00|   -7.983605|  3.0004e-05|    0.041961|
|        1190|  3.8338e+01|  3.8338e+01|   -7.968758|  2.7447e-05|    0.041977|
|        1200|  1.9781e+01|  1.9781e+01|   -7.977489|  2.5142e-05|    0.041989|
+-----------------------------------------------------------------------+
|        File Writing Summary       |              Filename             |
+-----------------------------------------------------------------------+
|SU2 binary restart                 |restart_flow_G5.dat                |
|Paraview                           |flow_G5.vtu                        |
|Paraview surface                   |surface_flow_G5.vtu                |
+-----------------------------------------------------------------------+
+-----------------------------------------------------------------------------+
|  Inner_Iter|     Min CFL|     Max CFL|      rms[P]|  Cauchy[CD]|          CD|
+-----------------------------------------------------------------------------+
|        1210|  1.0207e+01|  1.0207e+01|   -7.952513|  2.3821e-05|    0.041997|
|        1220|  1.0000e+00|  1.0000e+00|   -7.964321|  2.1803e-05|    0.041997|
|        1230|  1.7280e+00|  1.7280e+00|   -7.978292|  1.8461e-05|    0.041997|
|        1240|  1.0699e+01|  1.0699e+01|   -7.985693|  1.6782e-05|    0.041996|
|        1250|  5.5206e+00|  5.5206e+00|   -7.962202|  1.5842e-05|    0.041988|
|        1260|  3.4182e+01|  3.4182e+01|   -7.985161|  1.4978e-05|    0.041976|
|        1270|  1.7637e+01|  1.7637e+01|   -8.001143|  1.5367e-05|    0.041960|
|        1280|  9.1004e+00|  9.1004e+00|   -7.953427|  1.6540e-05|    0.041930|
|        1290|  5.6348e+01|  5.6348e+01|   -8.005174|  1.7898e-05|    0.041895|
|        1300|  3.5832e+00|  3.5832e+00|   -7.979356|  1.8368e-05|    0.041882|
|        1310|  2.2186e+01|  2.2186e+01|   -8.027924|  1.8934e-05|    0.041864|
|        1320|  1.1448e+01|  1.1448e+01|   -8.013585|  2.0311e-05|    0.041820|
|        1330|  4.9222e+01|  4.9222e+01|   -8.018028|  2.2398e-05|    0.041762|
|        1340|  1.0000e+00|  1.0000e+00|   -8.024643|  2.5149e-05|    0.041688|
|        1350|  1.2000e+00|  1.2000e+00|   -8.036592|  2.4230e-05|    0.041685|
|        1360|  7.4301e+00|  7.4301e+00|   -8.044888|  2.1799e-05|    0.041678|
|        1370|  4.6005e+01|  4.6005e+01|   -8.038334|  2.1655e-05|    0.041638|
|        1380|  2.3738e+01|  2.3738e+01|   -8.045305|  2.1481e-05|    0.041591|
|        1390|  4.9222e+01|  4.9222e+01|   -8.022529|  2.4105e-05|    0.041491|
|        1400|  4.9222e+01|  4.9222e+01|   -8.026971|  2.7530e-05|    0.041379|
+-----------------------------------------------------------------------+
|        File Writing Summary       |              Filename             |
+-----------------------------------------------------------------------+
|SU2 binary restart                 |restart_flow_G5.dat                |
|Paraview                           |flow_G5.vtu                        |
|Paraview surface                   |surface_flow_G5.vtu                |
+-----------------------------------------------------------------------+
+-----------------------------------------------------------------------------+
|  Inner_Iter|     Min CFL|     Max CFL|      rms[P]|  Cauchy[CD]|          CD|
+-----------------------------------------------------------------------------+
|        1410|  4.9222e+01|  4.9222e+01|   -8.040529|  3.0357e-05|    0.041277|
|        1420|  4.9222e+01|  4.9222e+01|   -8.049333|  3.3495e-05|    0.041198|
|        1430|  4.9222e+01|  4.9222e+01|   -8.054882|  3.5324e-05|    0.041150|
|        1440|  4.9222e+01|  4.9222e+01|   -8.058010|  3.5254e-05|    0.041136|
|        1450|  1.4698e+01|  1.4698e+01|   -8.083226|  3.4952e-05|    0.041141|
|        1460|  7.5837e+00|  7.5837e+00|   -8.018685|  3.5241e-05|    0.041156|
|        1470|  4.6956e+01|  4.6956e+01|   -8.086382|  3.5671e-05|    0.041167|
|        1480|  2.4228e+01|  2.4228e+01|   -8.098188|  3.6118e-05|    0.041179|
|        1490|  5.0240e+01|  5.0240e+01|   -8.086518|  3.7197e-05|    0.041206|
|        1500|  1.8002e+01|  1.8002e+01|   -8.119028|  3.7335e-05|    0.041218|
|        1510|  9.2886e+00|  9.2886e+00|   -8.069944|  3.7528e-05|    0.041235|
|        1520|  4.7927e+01|  4.7927e+01|   -8.124441|  3.7315e-05|    0.041245|
|        1530|  1.1926e+01|  1.1926e+01|   -8.140950|  3.6352e-05|    0.041251|
|        1540|  1.0000e+00|  1.0000e+00|   -8.128905|  3.4966e-05|    0.041252|
|        1550|  1.0000e+00|  1.0000e+00|   -8.140947|  3.4452e-05|    0.041252|
|        1560|  1.2000e+00|  1.2000e+00|   -8.145440|  3.3755e-05|    0.041252|
|        1570|  7.4301e+00|  7.4301e+00|   -8.153486|  3.2020e-05|    0.041253|
|        1580|  4.6005e+01|  4.6005e+01|   -8.141672|  2.9991e-05|    0.041260|
|        1590|  4.6005e+01|  4.6005e+01|   -8.129022|  2.7193e-05|    0.041265|
|        1600|  4.6005e+01|  4.6005e+01|   -8.129401|  2.7187e-05|    0.041266|
+-----------------------------------------------------------------------+
|        File Writing Summary       |              Filename             |
+-----------------------------------------------------------------------+
|SU2 binary restart                 |restart_flow_G5.dat                |
|Paraview                           |flow_G5.vtu                        |
|Paraview surface                   |surface_flow_G5.vtu                |
+-----------------------------------------------------------------------+
+-----------------------------------------------------------------------------+
|  Inner_Iter|     Min CFL|     Max CFL|      rms[P]|  Cauchy[CD]|          CD|
+-----------------------------------------------------------------------------+
|        1610|  4.6005e+01|  4.6005e+01|   -8.126699|  2.7242e-05|    0.041257|
|        1620|  5.5206e+00|  5.5206e+00|   -8.121991|  2.6592e-05|    0.041233|
|        1630|  3.4182e+01|  3.4182e+01|   -8.146760|  2.5154e-05|    0.041222|
|        1640|  4.9222e+01|  4.9222e+01|   -8.114981|  2.2926e-05|    0.041177|
|        1650|  4.9222e+00|  4.9222e+00|   -8.115888|  2.0851e-05|    0.041117|
|        1660|  3.0477e+01|  3.0477e+01|   -8.147108|  1.7456e-05|    0.041101|
|        1670|  1.5726e+01|  1.5726e+01|   -8.154112|  1.5379e-05|    0.041073|
|        1680|  4.6956e+01|  4.6956e+01|   -8.134330|  1.5340e-05|    0.041026|
|        1690|  4.6956e+01|  4.6956e+01|   -8.148523|  1.7350e-05|    0.040962|
|        1700|  4.6956e+01|  4.6956e+01|   -8.164300|  1.9463e-05|    0.040904|
|        1710|  4.6956e+01|  4.6956e+01|   -8.177682|  2.1053e-05|    0.040850|
|        1720|  4.6956e+01|  4.6956e+01|   -8.190446|  2.2613e-05|    0.040800|
|        1730|  9.7369e+00|  9.7369e+00|   -8.172304|  2.3492e-05|    0.040767|
|        1740|  5.0240e+01|  5.0240e+01|   -8.211585|  2.3094e-05|    0.040749|
|        1750|  5.0240e+01|  5.0240e+01|   -8.210530|  2.3845e-05|    0.040718|
|        1760|  1.0418e+01|  1.0418e+01|   -8.225358|  2.3677e-05|    0.040706|
|        1770|  5.3753e+00|  5.3753e+00|   -8.220939|  2.3382e-05|    0.040703|
|        1780|  3.3283e+01|  3.3283e+01|   -8.238479|  2.3245e-05|    0.040700|
|        1790|  4.7927e+00|  4.7927e+00|   -8.214018|  2.3345e-05|    0.040698|
|        1800|  2.9675e+01|  2.9675e+01|   -8.234439|  2.3362e-05|    0.040698|
+-----------------------------------------------------------------------+
|        File Writing Summary       |              Filename             |
+-----------------------------------------------------------------------+
|SU2 binary restart                 |restart_flow_G5.dat                |
|Paraview                           |flow_G5.vtu                        |
|Paraview surface                   |surface_flow_G5.vtu                |
+-----------------------------------------------------------------------+
+-----------------------------------------------------------------------------+
|  Inner_Iter|     Min CFL|     Max CFL|      rms[P]|  Cauchy[CD]|          CD|
+-----------------------------------------------------------------------------+
|        1810|  1.5312e+01|  1.5312e+01|   -8.233305|  2.3467e-05|    0.040701|
|        1820|  4.5721e+01|  4.5721e+01|   -8.210238|  2.3549e-05|    0.040703|
|        1830|  4.5721e+01|  4.5721e+01|   -8.203457|  2.3412e-05|    0.040699|
|        1840|  4.5721e+01|  4.5721e+01|   -8.198605|  2.3533e-05|    0.040691|
|        1850|  1.1377e+01|  1.1377e+01|   -8.205417|  2.3847e-05|    0.040681|
|        1860|  5.8702e+00|  5.8702e+00|   -8.198052|  2.3860e-05|    0.040673|
|        1870|  3.6346e+01|  3.6346e+01|   -8.213569|  2.3195e-05|    0.040665|
|        1880|  1.8754e+01|  1.8754e+01|   -8.214424|  2.3161e-05|    0.040655|
|        1890|  9.6766e+00|  9.6766e+00|   -8.174360|  2.1995e-05|    0.040640|
|        1900|  4.9929e+01|  4.9929e+01|   -8.203335|  2.0304e-05|    0.040622|
|        1910|  4.9929e+00|  4.9929e+00|   -8.192195|  2.1510e-05|    0.040575|
|        1920|  3.0915e+01|  3.0915e+01|   -8.208075|  2.0965e-05|    0.040561|
|        1930|  1.5951e+01|  1.5951e+01|   -8.207693|  2.0049e-05|    0.040537|
|        1940|  4.7631e+00|  4.7631e+00|   -8.198055|  1.9273e-05|    0.040493|
|        1950|  1.7280e+00|  1.7280e+00|   -8.173479|  1.7039e-05|    0.040490|
|        1960|  1.0699e+01|  1.0699e+01|   -8.206616|  1.5118e-05|    0.040484|
|        1970|  5.5206e+00|  5.5206e+00|   -8.204115|  1.4654e-05|    0.040446|
|        1980|  3.4182e+01|  3.4182e+01|   -8.212119|  1.4219e-05|    0.040423|
|        1990|  1.7637e+01|  1.7637e+01|   -8.213139|  1.4564e-05|    0.040397|
|        2000|  9.1004e+00|  9.1004e+00|   -8.193065|  1.4786e-05|    0.040361|
+-----------------------------------------------------------------------+
|        File Writing Summary       |              Filename             |
+-----------------------------------------------------------------------+
|SU2 binary restart                 |restart_flow_G5.dat                |
|Paraview                           |flow_G5.vtu                        |
|Paraview surface                   |surface_flow_G5.vtu                |
+-----------------------------------------------------------------------+
+-----------------------------------------------------------------------------+
|  Inner_Iter|     Min CFL|     Max CFL|      rms[P]|  Cauchy[CD]|          CD|
+-----------------------------------------------------------------------------+
|        2010|  4.6956e+01|  4.6956e+01|   -8.217976|  1.5684e-05|    0.040326|
|        2020|  4.6956e+01|  4.6956e+01|   -8.217367|  1.8245e-05|    0.040259|
|        2030|  1.6825e+01|  1.6825e+01|   -8.226658|  1.9494e-05|    0.040225|
|        2040|  8.6815e+00|  8.6815e+00|   -8.214195|  2.0484e-05|    0.040197|
|        2050|  5.3753e+01|  5.3753e+01|   -8.240747|  2.1499e-05|    0.040171|
|        2060|  1.0000e+00|  1.0000e+00|   -8.241402|  2.1887e-05|    0.040158|
|        2070|  1.0000e+00|  1.0000e+00|   -8.239746|  2.1823e-05|    0.040157|
|        2080|  5.1598e+00|  5.1598e+00|   -8.244733|  2.1782e-05|    0.040155|
|        2090|  3.1948e+01|  3.1948e+01|   -8.252424|  2.2030e-05|    0.040141|
|        2100|  1.6484e+01|  1.6484e+01|   -8.248566|  2.2491e-05|    0.040119|
|        2110|  8.5056e+00|  8.5056e+00|   -8.232866|  2.3105e-05|    0.040095|
|        2120|  5.2665e+01|  5.2665e+01|   -8.265539|  2.3493e-05|    0.040078|
|        2130|  2.7174e+01|  2.7174e+01|   -8.272983|  2.3573e-05|    0.040066|
|        2140|  1.4021e+01|  1.4021e+01|   -8.272859|  2.3586e-05|    0.040050|
|        2150|  7.2346e+00|  7.2346e+00|   -8.259826|  2.3434e-05|    0.040036|
|        2160|  4.4794e+01|  4.4794e+01|   -8.292523|  2.2000e-05|    0.040025|
|        2170|  2.3113e+01|  2.3113e+01|   -8.297603|  2.1867e-05|    0.040015|
|        2180|  4.7927e+01|  4.7927e+01|   -8.295509|  2.1705e-05|    0.039994|
|        2190|  4.7927e+01|  4.7927e+01|   -8.305739|  2.0849e-05|    0.039971|
|        2200|  4.7927e+01|  4.7927e+01|   -8.314508|  2.1758e-05|    0.039946|
+-----------------------------------------------------------------------+
|        File Writing Summary       |              Filename             |
+-----------------------------------------------------------------------+
|SU2 binary restart                 |restart_flow_G5.dat                |
|Paraview                           |flow_G5.vtu                        |
|Paraview surface                   |surface_flow_G5.vtu                |
+-----------------------------------------------------------------------+
+-----------------------------------------------------------------------------+
|  Inner_Iter|     Min CFL|     Max CFL|      rms[P]|  Cauchy[CD]|          CD|
+-----------------------------------------------------------------------------+
|        2210|  4.7927e+01|  4.7927e+01|   -8.322397|  2.2770e-05|    0.039915|
|        2220|  4.7927e+01|  4.7927e+01|   -8.329512|  2.2756e-05|    0.039877|
|        2230|  4.7927e+01|  4.7927e+01|   -8.334151|  2.3636e-05|    0.039832|
|        2240|  5.7512e+01|  5.7512e+01|   -8.337198|  2.4645e-05|    0.039781|
|        2250|  2.9675e+01|  2.9675e+01|   -8.378198|  2.4054e-05|    0.039759|
|        2260|  5.1279e+01|  5.1279e+01|   -8.336967|  2.4987e-05|    0.039701|
|        2270|  5.1279e+01|  5.1279e+01|   -8.337218|  2.5079e-05|    0.039632|
|        2280|  5.1279e+00|  5.1279e+00|   -8.334538|  2.6591e-05|    0.039560|
|        2290|  3.1750e+01|  3.1750e+01|   -8.380149|  2.6240e-05|    0.039541|
|        2300|  1.6383e+01|  1.6383e+01|   -8.381736|  2.6433e-05|    0.039510|
|        2310|  4.8918e+01|  4.8918e+01|   -8.340122|  2.7885e-05|    0.039461|
|        2320|  4.8918e+01|  4.8918e+01|   -8.335488|  3.0418e-05|    0.039397|
|        2330|  4.8918e+01|  4.8918e+01|   -8.330551|  3.2668e-05|    0.039338|
|        2340|  1.0144e+01|  1.0144e+01|   -8.298279|  3.3843e-05|    0.039295|
|        2350|  5.2339e+00|  5.2339e+00|   -8.334115|  3.4099e-05|    0.039267|
|        2360|  3.2407e+01|  3.2407e+01|   -8.350176|  3.3719e-05|    0.039252|
|        2370|  1.6721e+01|  1.6721e+01|   -8.350423|  3.3961e-05|    0.039229|
|        2380|  8.6278e+00|  8.6278e+00|   -8.294959|  3.4614e-05|    0.039200|
|        2390|  5.3421e+01|  5.3421e+01|   -8.332773|  3.4824e-05|    0.039179|
|        2400|  2.7564e+01|  2.7564e+01|   -8.339082|  3.4861e-05|    0.039164|
+-----------------------------------------------------------------------+
|        File Writing Summary       |              Filename             |
+-----------------------------------------------------------------------+
|SU2 binary restart                 |restart_flow_G5.dat                |
|Paraview                           |flow_G5.vtu                        |
|Paraview surface                   |surface_flow_G5.vtu                |
+-----------------------------------------------------------------------+
+-----------------------------------------------------------------------------+
|  Inner_Iter|     Min CFL|     Max CFL|      rms[P]|  Cauchy[CD]|          CD|
+-----------------------------------------------------------------------------+
|        2410|  1.4400e+00|  1.4400e+00|   -8.328650|  3.5217e-05|    0.039145|
|        2420|  1.0000e+00|  1.0000e+00|   -8.336416|  3.4864e-05|    0.039143|
|        2430|  1.0000e+00|  1.0000e+00|   -8.337103|  3.4093e-05|    0.039142|
|        2440|  2.0736e+00|  2.0736e+00|   -8.337453|  3.3220e-05|    0.039141|
|        2450|  1.2839e+01|  1.2839e+01|   -8.339323|  3.2444e-05|    0.039135|
|        2460|  6.6247e+00|  6.6247e+00|   -8.316272|  3.2101e-05|    0.039112|
|        2470|  4.1019e+01|  4.1019e+01|   -8.327377|  3.1217e-05|    0.039096|
|        2480|  4.9222e+01|  4.9222e+01|   -8.309629|  3.1242e-05|    0.039051|
|        2490|  4.9222e+01|  4.9222e+01|   -8.305150|  3.1074e-05|    0.039004|
|        2500|  4.9222e+01|  4.9222e+01|   -8.301434|  3.2208e-05|    0.038954|
|        2510|  4.9222e+01|  4.9222e+01|   -8.299405|  3.2025e-05|    0.038901|
|        2520|  4.9222e+01|  4.9222e+01|   -8.299440|  3.1465e-05|    0.038845|
|        2530|  4.9222e+01|  4.9222e+01|   -8.301272|  3.0872e-05|    0.038788|
|        2540|  4.9222e+01|  4.9222e+01|   -8.305488|  3.2502e-05|    0.038728|
|        2550|  4.9222e+01|  4.9222e+01|   -8.311754|  3.3758e-05|    0.038666|
|        2560|  5.9067e+01|  5.9067e+01|   -8.320206|  3.4343e-05|    0.038603|
|        2570|  3.0477e+01|  3.0477e+01|   -8.344441|  3.2729e-05|    0.038579|
|        2580|  1.5726e+01|  1.5726e+01|   -8.351809|  3.1444e-05|    0.038552|
|        2590|  8.1140e+00|  8.1140e+00|   -8.316797|  3.1089e-05|    0.038517|
|        2600|  5.0240e+01|  5.0240e+01|   -8.357146|  3.1048e-05|    0.038491|
+-----------------------------------------------------------------------+
|        File Writing Summary       |              Filename             |
+-----------------------------------------------------------------------+
|SU2 binary restart                 |restart_flow_G5.dat                |
|Paraview                           |flow_G5.vtu                        |
|Paraview surface                   |surface_flow_G5.vtu                |
+-----------------------------------------------------------------------+
+-----------------------------------------------------------------------------+
|  Inner_Iter|     Min CFL|     Max CFL|      rms[P]|  Cauchy[CD]|          CD|
+-----------------------------------------------------------------------------+
|        2610|  5.0240e+01|  5.0240e+01|   -8.357299|  3.2974e-05|    0.038428|
|        2620|  8.6815e+00|  8.6815e+00|   -8.352252|  3.3834e-05|    0.038383|
|        2630|  5.3753e+01|  5.3753e+01|   -8.388017|  3.3739e-05|    0.038357|
|        2640|  2.7736e+01|  2.7736e+01|   -8.399024|  3.3692e-05|    0.038337|
|        2650|  4.7927e+01|  4.7927e+01|   -8.395984|  3.5108e-05|    0.038287|
|        2660|  4.7927e+01|  4.7927e+01|   -8.412959|  3.6467e-05|    0.038233|
|        2670|  1.4311e+01|  1.4311e+01|   -8.434777|  3.7653e-05|    0.038202|
|        2680|  7.3841e+00|  7.3841e+00|   -8.418033|  3.8629e-05|    0.038176|
|        2690|  4.5721e+01|  4.5721e+01|   -8.450078|  3.9380e-05|    0.038156|
|        2700|  2.3591e+01|  2.3591e+01|   -8.458691|  3.9957e-05|    0.038136|
|        2710|  4.8918e+01|  4.8918e+01|   -8.456990|  4.0750e-05|    0.038093|
|        2720|  4.8918e+01|  4.8918e+01|   -8.471992|  4.2091e-05|    0.038044|
|        2730|  4.8918e+00|  4.8918e+00|   -8.484912|  4.2259e-05|    0.037995|
|        2740|  3.0289e+01|  3.0289e+01|   -8.508633|  4.0898e-05|    0.037982|
|        2750|  1.5628e+01|  1.5628e+01|   -8.514376|  3.9773e-05|    0.037960|
|        2760|  4.6666e+01|  4.6666e+01|   -8.507117|  3.9058e-05|    0.037924|
|        2770|  4.6666e+01|  4.6666e+01|   -8.518671|  3.8810e-05|    0.037875|
|        2780|  4.6666e+01|  4.6666e+01|   -8.528806|  3.8450e-05|    0.037827|
|        2790|  4.6666e+01|  4.6666e+01|   -8.535639|  3.8062e-05|    0.037777|
|        2800|  1.1612e+01|  1.1612e+01|   -8.550360|  3.6983e-05|    0.037742|
+-----------------------------------------------------------------------+
|        File Writing Summary       |              Filename             |
+-----------------------------------------------------------------------+
|SU2 binary restart                 |restart_flow_G5.dat                |
|Paraview                           |flow_G5.vtu                        |
|Paraview surface                   |surface_flow_G5.vtu                |
+-----------------------------------------------------------------------+
+-----------------------------------------------------------------------------+
|  Inner_Iter|     Min CFL|     Max CFL|      rms[P]|  Cauchy[CD]|          CD|
+-----------------------------------------------------------------------------+
|        2810|  5.9915e+00|  5.9915e+00|   -8.546965|  3.5519e-05|    0.037715|
|        2820|  3.7098e+01|  3.7098e+01|   -8.568279|  3.5241e-05|    0.037698|
|        2830|  1.9142e+01|  1.9142e+01|   -8.573942|  3.5061e-05|    0.037675|
|        2840|  9.8767e+00|  9.8767e+00|   -8.529459|  3.4856e-05|    0.037646|
|        2850|  5.0962e+01|  5.0962e+01|   -8.565381|  3.4900e-05|    0.037618|
|        2860|  5.0962e+01|  5.0962e+01|   -8.559881|  3.4623e-05|    0.037562|
|        2870|  5.0962e+01|  5.0962e+01|   -8.562419|  3.5054e-05|    0.037507|
|        2880|  5.0962e+01|  5.0962e+01|   -8.564653|  3.6206e-05|    0.037452|
|        2890|  5.0962e+01|  5.0962e+01|   -8.567454|  3.7531e-05|    0.037399|
|        2900|  5.0962e+01|  5.0962e+01|   -8.571452|  3.7538e-05|    0.037348|
|        2910|  5.0962e+01|  5.0962e+01|   -8.576159|  3.7324e-05|    0.037300|
|        2920|  5.0962e+01|  5.0962e+01|   -8.581398|  3.7921e-05|    0.037254|
|        2930|  5.0962e+01|  5.0962e+01|   -8.587028|  3.8704e-05|    0.037209|
|        2940|  5.0962e+01|  5.0962e+01|   -8.593256|  3.9690e-05|    0.037164|
|        2950|  1.5217e+01|  1.5217e+01|   -8.620017|  3.9789e-05|    0.037142|
|        2960|  7.8517e+00|  7.8517e+00|   -8.577296|  3.8958e-05|    0.037119|
|        2970|  4.8615e+01|  4.8615e+01|   -8.625162|  3.7682e-05|    0.037102|
|        2980|  4.8615e+01|  4.8615e+01|   -8.616731|  3.7390e-05|    0.037060|
|        2990|  4.8615e+01|  4.8615e+01|   -8.625051|  3.8515e-05|    0.037019|
|        3000|  4.8615e+01|  4.8615e+01|   -8.630837|  3.9323e-05|    0.036977|
+-----------------------------------------------------------------------+
|        File Writing Summary       |              Filename             |
+-----------------------------------------------------------------------+
|SU2 binary restart                 |restart_flow_G5.dat                |
|Paraview                           |flow_G5.vtu                        |
|Paraview surface                   |surface_flow_G5.vtu                |
+-----------------------------------------------------------------------+
+-----------------------------------------------------------------------------+
|  Inner_Iter|     Min CFL|     Max CFL|      rms[P]|  Cauchy[CD]|          CD|
+-----------------------------------------------------------------------------+
|        3010|  4.8615e+01|  4.8615e+01|   -8.637451|  3.9623e-05|    0.036934|
|        3020|  4.8615e+01|  4.8615e+01|   -8.644850|  3.9396e-05|    0.036890|
|        3030|  4.8615e+01|  4.8615e+01|   -8.650950|  3.9204e-05|    0.036847|
|        3040|  4.8615e+01|  4.8615e+01|   -8.656588|  3.8926e-05|    0.036804|
|        3050|  2.0904e+01|  2.0904e+01|   -8.684249|  3.8347e-05|    0.036783|
|        3060|  1.0786e+01|  1.0786e+01|   -8.676468|  3.8082e-05|    0.036763|
|        3070|  5.5653e+00|  5.5653e+00|   -8.673226|  3.8355e-05|    0.036739|
|        3080|  3.4459e+01|  3.4459e+01|   -8.691362|  3.7974e-05|    0.036726|
|        3090|  4.9621e+01|  4.9621e+01|   -8.672435|  3.8413e-05|    0.036686|
|        3100|  4.9621e+01|  4.9621e+01|   -8.675837|  3.8966e-05|    0.036644|
|        3110|  4.9621e+01|  4.9621e+01|   -8.676055|  3.8370e-05|    0.036603|
|        3120|  4.9621e+01|  4.9621e+01|   -8.676997|  3.7755e-05|    0.036563|
|        3130|  4.9621e+01|  4.9621e+01|   -8.677056|  3.7105e-05|    0.036524|
|        3140|  4.9621e+01|  4.9621e+01|   -8.676274|  3.6462e-05|    0.036487|
|        3150|  4.9621e+01|  4.9621e+01|   -8.675999|  3.5893e-05|    0.036451|
|        3160|  4.9621e+01|  4.9621e+01|   -8.676264|  3.5405e-05|    0.036415|
|        3170|  4.9621e+01|  4.9621e+01|   -8.677282|  3.4987e-05|    0.036379|
|        3180|  4.9621e+01|  4.9621e+01|   -8.678296|  3.4633e-05|    0.036343|
|        3190|  4.9621e+01|  4.9621e+01|   -8.679133|  3.4304e-05|    0.036306|
|        3200|  4.9621e+01|  4.9621e+01|   -8.680022|  3.4864e-05|    0.036270|
+-----------------------------------------------------------------------+
|        File Writing Summary       |              Filename             |
+-----------------------------------------------------------------------+
|SU2 binary restart                 |restart_flow_G5.dat                |
|Paraview                           |flow_G5.vtu                        |
|Paraview surface                   |surface_flow_G5.vtu                |
+-----------------------------------------------------------------------+
+-----------------------------------------------------------------------------+
|  Inner_Iter|     Min CFL|     Max CFL|      rms[P]|  Cauchy[CD]|          CD|
+-----------------------------------------------------------------------------+
|        3210|  4.9621e+01|  4.9621e+01|   -8.681673|  3.5424e-05|    0.036234|
|        3220|  4.9621e+01|  4.9621e+01|   -8.684567|  3.6185e-05|    0.036197|
|        3230|  4.9621e+01|  4.9621e+01|   -8.688398|  3.5980e-05|    0.036161|
|        3240|  4.9621e+01|  4.9621e+01|   -8.692628|  3.5793e-05|    0.036124|
|        3250|  4.9621e+01|  4.9621e+01|   -8.697170|  3.5566e-05|    0.036087|
|        3260|  4.9621e+01|  4.9621e+01|   -8.702403|  3.5279e-05|    0.036052|
|        3270|  4.9621e+01|  4.9621e+01|   -8.708477|  3.4946e-05|    0.036016|
|        3280|  4.9621e+01|  4.9621e+01|   -8.715319|  3.4601e-05|    0.035982|
|        3290|  4.9621e+01|  4.9621e+01|   -8.723016|  3.4237e-05|    0.035948|
|        3300|  4.9621e+01|  4.9621e+01|   -8.731781|  3.4736e-05|    0.035915|
|        3310|  4.9621e+01|  4.9621e+01|   -8.741453|  3.5230e-05|    0.035882|
|        3320|  4.9621e+01|  4.9621e+01|   -8.751589|  3.5543e-05|    0.035850|
|        3330|  4.9621e+01|  4.9621e+01|   -8.762033|  3.6291e-05|    0.035819|
|        3340|  4.9621e+01|  4.9621e+01|   -8.773156|  3.5925e-05|    0.035788|
|        3350|  2.5603e+01|  2.5603e+01|   -8.798147|  3.4637e-05|    0.035778|
|        3360|  1.3211e+01|  1.3211e+01|   -8.802771|  3.3556e-05|    0.035764|
|        3370|  4.7336e+01|  4.7336e+01|   -8.795274|  3.2715e-05|    0.035745|
|        3380|  4.7336e+01|  4.7336e+01|   -8.806618|  3.2352e-05|    0.035715|
|        3390|  4.7336e+01|  4.7336e+01|   -8.819122|  3.2037e-05|    0.035686|
|        3400|  4.7336e+01|  4.7336e+01|   -8.827841|  3.1757e-05|    0.035657|
+-----------------------------------------------------------------------+
|        File Writing Summary       |              Filename             |
+-----------------------------------------------------------------------+
|SU2 binary restart                 |restart_flow_G5.dat                |
|Paraview                           |flow_G5.vtu                        |
|Paraview surface                   |surface_flow_G5.vtu                |
+-----------------------------------------------------------------------+
+-----------------------------------------------------------------------------+
|  Inner_Iter|     Min CFL|     Max CFL|      rms[P]|  Cauchy[CD]|          CD|
+-----------------------------------------------------------------------------+
|        3410|  4.7336e+01|  4.7336e+01|   -8.838178|  3.1493e-05|    0.035627|
|        3420|  4.7336e+01|  4.7336e+01|   -8.847220|  3.1232e-05|    0.035598|
|        3430|  4.7336e+01|  4.7336e+01|   -8.855548|  3.0942e-05|    0.035569|
|        3440|  4.7336e+01|  4.7336e+01|   -8.862744|  3.0629e-05|    0.035541|
|        3450|  4.7336e+01|  4.7336e+01|   -8.868644|  3.0308e-05|    0.035512|
|        3460|  4.7336e+01|  4.7336e+01|   -8.873385|  2.9971e-05|    0.035485|
|        3470|  4.7336e+01|  4.7336e+01|   -8.876967|  2.9612e-05|    0.035457|
|        3480|  4.7336e+01|  4.7336e+01|   -8.879995|  2.9234e-05|    0.035430|
|        3490|  4.7336e+01|  4.7336e+01|   -8.882608|  2.8836e-05|    0.035403|
|        3500|  4.7336e+01|  4.7336e+01|   -8.884780|  2.8425e-05|    0.035377|
|        3510|  4.7336e+01|  4.7336e+01|   -8.886639|  2.8013e-05|    0.035351|
|        3520|  4.7336e+01|  4.7336e+01|   -8.888464|  2.7609e-05|    0.035326|
|        3530|  4.7336e+01|  4.7336e+01|   -8.890410|  2.7219e-05|    0.035301|
|        3540|  4.7336e+01|  4.7336e+01|   -8.892438|  2.6847e-05|    0.035277|
|        3550|  4.7336e+01|  4.7336e+01|   -8.894592|  2.6493e-05|    0.035252|
|        3560|  4.7336e+01|  4.7336e+01|   -8.897008|  2.6158e-05|    0.035228|
|        3570|  4.7336e+00|  4.7336e+00|   -8.899864|  2.5843e-05|    0.035204|
|        3580|  2.9309e+01|  2.9309e+01|   -8.917108|  2.4839e-05|    0.035198|
|        3590|  1.5123e+01|  1.5123e+01|   -8.918949|  2.4010e-05|    0.035187|
|        3600|  4.5157e+01|  4.5157e+01|   -8.909558|  2.4281e-05|    0.035171|
+-----------------------------------------------------------------------+
|        File Writing Summary       |              Filename             |
+-----------------------------------------------------------------------+
|SU2 binary restart                 |restart_flow_G5.dat                |
|Paraview                           |flow_G5.vtu                        |
|Paraview surface                   |surface_flow_G5.vtu                |
+-----------------------------------------------------------------------+
+-----------------------------------------------------------------------------+
|  Inner_Iter|     Min CFL|     Max CFL|      rms[P]|  Cauchy[CD]|          CD|
+-----------------------------------------------------------------------------+
|        3610|  4.5157e+01|  4.5157e+01|   -8.912016|  2.4627e-05|    0.035148|
|        3620|  4.5157e+01|  4.5157e+01|   -8.917305|  2.4763e-05|    0.035126|
|        3630|  4.5157e+01|  4.5157e+01|   -8.920637|  2.4491e-05|    0.035103|
|        3640|  4.5157e+01|  4.5157e+01|   -8.925373|  2.4234e-05|    0.035080|
|        3650|  4.5157e+01|  4.5157e+01|   -8.930594|  2.3959e-05|    0.035058|
|        3660|  4.5157e+01|  4.5157e+01|   -8.935530|  2.3655e-05|    0.035036|
|        3670|  4.5157e+01|  4.5157e+01|   -8.940942|  2.3342e-05|    0.035015|
|        3680|  4.5157e+01|  4.5157e+01|   -8.946333|  2.3042e-05|    0.034993|
|        3690|  4.5157e+01|  4.5157e+01|   -8.952090|  2.2743e-05|    0.034972|
|        3700|  4.5157e+01|  4.5157e+01|   -8.957762|  2.2440e-05|    0.034951|
|        3710|  4.5157e+01|  4.5157e+01|   -8.963133|  2.2145e-05|    0.034931|
|        3720|  4.5157e+01|  4.5157e+01|   -8.968137|  2.1855e-05|    0.034911|
|        3730|  4.5157e+01|  4.5157e+01|   -8.972680|  2.1567e-05|    0.034891|
|        3740|  4.5157e+01|  4.5157e+01|   -8.977009|  2.1287e-05|    0.034871|
|        3750|  4.5157e+01|  4.5157e+01|   -8.981293|  2.1023e-05|    0.034851|
|        3760|  4.5157e+01|  4.5157e+01|   -8.985552|  2.0778e-05|    0.034832|
|        3770|  4.5157e+01|  4.5157e+01|   -8.989543|  2.0547e-05|    0.034812|
|        3780|  4.5157e+01|  4.5157e+01|   -8.993127|  2.0325e-05|    0.034793|
|        3790|  4.5157e+01|  4.5157e+01|   -8.996317|  2.0110e-05|    0.034774|
|        3800|  4.5157e+01|  4.5157e+01|   -8.999175|  1.9900e-05|    0.034755|
+-----------------------------------------------------------------------+
|        File Writing Summary       |              Filename             |
+-----------------------------------------------------------------------+
|SU2 binary restart                 |restart_flow_G5.dat                |
|Paraview                           |flow_G5.vtu                        |
|Paraview surface                   |surface_flow_G5.vtu                |
+-----------------------------------------------------------------------+
+-----------------------------------------------------------------------------+
|  Inner_Iter|     Min CFL|     Max CFL|      rms[P]|  Cauchy[CD]|          CD|
+-----------------------------------------------------------------------------+
|        3810|  4.5157e+01|  4.5157e+01|   -9.001799|  1.9696e-05|    0.034736|
|        3820|  4.5157e+01|  4.5157e+01|   -9.004349|  1.9495e-05|    0.034717|
|        3830|  4.5157e+01|  4.5157e+01|   -9.006980|  1.9998e-05|    0.034698|
|        3840|  4.5157e+01|  4.5157e+01|   -9.009700|  2.0335e-05|    0.034679|
|        3850|  4.5157e+01|  4.5157e+01|   -9.012325|  2.0425e-05|    0.034660|
|        3860|  4.5157e+01|  4.5157e+01|   -9.014659|  2.0254e-05|    0.034642|
|        3870|  4.5157e+01|  4.5157e+01|   -9.016688|  2.0084e-05|    0.034624|
|        3880|  4.5157e+01|  4.5157e+01|   -9.018656|  1.9902e-05|    0.034606|
|        3890|  4.5157e+01|  4.5157e+01|   -9.020870|  1.9712e-05|    0.034588|
|        3900|  4.5157e+01|  4.5157e+01|   -9.023444|  1.9520e-05|    0.034570|
|        3910|  4.5157e+01|  4.5157e+01|   -9.026257|  1.9340e-05|    0.034553|
|        3920|  4.5157e+01|  4.5157e+01|   -9.029097|  1.9168e-05|    0.034535|
|        3930|  4.5157e+01|  4.5157e+01|   -9.031907|  1.8999e-05|    0.034518|
|        3940|  4.5157e+01|  4.5157e+01|   -9.034803|  1.8835e-05|    0.034501|
|        3950|  4.5157e+01|  4.5157e+01|   -9.037933|  1.8678e-05|    0.034484|
|        3960|  4.5157e+01|  4.5157e+01|   -9.041369|  1.8526e-05|    0.034468|
|        3970|  5.4188e+00|  5.4188e+00|   -9.045102|  1.8319e-05|    0.034453|
|        3980|  3.3552e+01|  3.3552e+01|   -9.061395|  1.7730e-05|    0.034447|
|        3990|  1.7312e+01|  1.7312e+01|   -9.063553|  1.7211e-05|    0.034441|
|        4000|  4.3078e+01|  4.3078e+01|   -9.054127|  1.6925e-05|    0.034428|
+-----------------------------------------------------------------------+
|        File Writing Summary       |              Filename             |
+-----------------------------------------------------------------------+
|SU2 binary restart                 |restart_flow_G5.dat                |
|Paraview                           |flow_G5.vtu                        |
|Paraview surface                   |surface_flow_G5.vtu                |
+-----------------------------------------------------------------------+
+-----------------------------------------------------------------------------+
|  Inner_Iter|     Min CFL|     Max CFL|      rms[P]|  Cauchy[CD]|          CD|
+-----------------------------------------------------------------------------+
|        4010|  4.3078e+01|  4.3078e+01|   -9.057400|  1.6777e-05|    0.034412|
|        4020|  4.3078e+01|  4.3078e+01|   -9.061548|  1.6624e-05|    0.034397|
|        4030|  4.3078e+01|  4.3078e+01|   -9.064337|  1.6474e-05|    0.034381|
|        4040|  4.3078e+01|  4.3078e+01|   -9.067999|  1.6330e-05|    0.034366|
|        4050|  4.3078e+01|  4.3078e+01|   -9.071833|  1.6189e-05|    0.034350|
|        4060|  4.3078e+01|  4.3078e+01|   -9.075539|  1.6040e-05|    0.034335|
|        4070|  4.3078e+01|  4.3078e+01|   -9.079253|  1.5883e-05|    0.034320|
|        4080|  4.3078e+01|  4.3078e+01|   -9.082764|  1.5724e-05|    0.034305|
|        4090|  4.3078e+01|  4.3078e+01|   -9.086217|  1.5565e-05|    0.034290|
|        4100|  4.3078e+01|  4.3078e+01|   -9.089507|  1.5407e-05|    0.034275|
|        4110|  4.3078e+01|  4.3078e+01|   -9.092834|  1.5252e-05|    0.034261|
|        4120|  4.3078e+01|  4.3078e+01|   -9.096240|  1.5102e-05|    0.034246|
|        4130|  4.3078e+01|  4.3078e+01|   -9.099623|  1.4955e-05|    0.034232|
|        4140|  4.3078e+01|  4.3078e+01|   -9.102870|  1.4809e-05|    0.034217|
|        4150|  4.3078e+01|  4.3078e+01|   -9.105955|  1.4665e-05|    0.034203|
|        4160|  4.3078e+01|  4.3078e+01|   -9.109090|  1.4524e-05|    0.034189|
|        4170|  4.3078e+01|  4.3078e+01|   -9.112359|  1.4388e-05|    0.034176|
|        4180|  4.3078e+01|  4.3078e+01|   -9.115673|  1.4257e-05|    0.034162|
|        4190|  4.3078e+01|  4.3078e+01|   -9.118941|  1.4129e-05|    0.034148|
|        4200|  4.3078e+01|  4.3078e+01|   -9.122126|  1.4003e-05|    0.034134|
+-----------------------------------------------------------------------+
|        File Writing Summary       |              Filename             |
+-----------------------------------------------------------------------+
|SU2 binary restart                 |restart_flow_G5.dat                |
|Paraview                           |flow_G5.vtu                        |
|Paraview surface                   |surface_flow_G5.vtu                |
+-----------------------------------------------------------------------+
+-----------------------------------------------------------------------------+
|  Inner_Iter|     Min CFL|     Max CFL|      rms[P]|  Cauchy[CD]|          CD|
+-----------------------------------------------------------------------------+
|        4210|  4.3078e+01|  4.3078e+01|   -9.125260|  1.3876e-05|    0.034121|
|        4220|  4.3078e+01|  4.3078e+01|   -9.128419|  1.3811e-05|    0.034107|
|        4230|  4.3078e+01|  4.3078e+01|   -9.131725|  1.4137e-05|    0.034094|
|        4240|  4.3078e+01|  4.3078e+01|   -9.135285|  1.4403e-05|    0.034080|
|        4250|  4.3078e+01|  4.3078e+01|   -9.139030|  1.4440e-05|    0.034067|
|        4260|  4.3078e+01|  4.3078e+01|   -9.142853|  1.4340e-05|    0.034054|
|        4270|  4.3078e+01|  4.3078e+01|   -9.146601|  1.4242e-05|    0.034041|
|        4280|  4.3078e+01|  4.3078e+01|   -9.150212|  1.4138e-05|    0.034028|
|        4290|  4.3078e+01|  4.3078e+01|   -9.153737|  1.4027e-05|    0.034015|
|        4300|  4.3078e+01|  4.3078e+01|   -9.157312|  1.3913e-05|    0.034002|
|        4310|  4.3078e+01|  4.3078e+01|   -9.161073|  1.3804e-05|    0.033990|
|        4320|  4.3078e+01|  4.3078e+01|   -9.165013|  1.3701e-05|    0.033977|
|        4330|  4.3078e+01|  4.3078e+01|   -9.168992|  1.3599e-05|    0.033965|
|        4340|  4.3078e+01|  4.3078e+01|   -9.172820|  1.3498e-05|    0.033952|
|        4350|  4.3078e+01|  4.3078e+01|   -9.176411|  1.3398e-05|    0.033940|
|        4360|  4.3078e+01|  4.3078e+01|   -9.179831|  1.3299e-05|    0.033928|
|        4370|  4.3078e+01|  4.3078e+01|   -9.183211|  1.3200e-05|    0.033916|
|        4380|  4.3078e+01|  4.3078e+01|   -9.186673|  1.3103e-05|    0.033904|
|        4390|  4.3078e+01|  4.3078e+01|   -9.190214|  1.3010e-05|    0.033892|
|        4400|  4.3078e+01|  4.3078e+01|   -9.193756|  1.2922e-05|    0.033880|
+-----------------------------------------------------------------------+
|        File Writing Summary       |              Filename             |
+-----------------------------------------------------------------------+
|SU2 binary restart                 |restart_flow_G5.dat                |
|Paraview                           |flow_G5.vtu                        |
|Paraview surface                   |surface_flow_G5.vtu                |
+-----------------------------------------------------------------------+
+-----------------------------------------------------------------------------+
|  Inner_Iter|     Min CFL|     Max CFL|      rms[P]|  Cauchy[CD]|          CD|
+-----------------------------------------------------------------------------+
|        4410|  4.3078e+01|  4.3078e+01|   -9.197183|  1.2835e-05|    0.033869|
|        4420|  4.3078e+01|  4.3078e+01|   -9.200443|  1.2748e-05|    0.033857|
|        4430|  4.3078e+01|  4.3078e+01|   -9.203554|  1.2660e-05|    0.033845|
|        4440|  4.3078e+01|  4.3078e+01|   -9.206591|  1.2572e-05|    0.033834|
|        4450|  4.3078e+01|  4.3078e+01|   -9.209647|  1.2484e-05|    0.033822|
|        4460|  4.3078e+01|  4.3078e+01|   -9.212758|  1.2397e-05|    0.033811|
|        4470|  4.3078e+01|  4.3078e+01|   -9.215865|  1.2309e-05|    0.033800|
|        4480|  4.3078e+01|  4.3078e+01|   -9.218909|  1.2219e-05|    0.033788|
|        4490|  4.3078e+01|  4.3078e+01|   -9.221820|  1.2129e-05|    0.033777|
|        4500|  4.3078e+01|  4.3078e+01|   -9.224596|  1.2039e-05|    0.033766|
|        4510|  4.3078e+01|  4.3078e+01|   -9.227297|  1.1948e-05|    0.033755|
|        4520|  4.3078e+01|  4.3078e+01|   -9.229997|  1.1857e-05|    0.033744|
|        4530|  4.3078e+01|  4.3078e+01|   -9.232710|  1.1768e-05|    0.033734|
|        4540|  4.3078e+01|  4.3078e+01|   -9.235413|  1.1681e-05|    0.033723|
|        4550|  4.3078e+01|  4.3078e+01|   -9.238082|  1.1594e-05|    0.033712|
|        4560|  4.3078e+01|  4.3078e+01|   -9.240705|  1.1508e-05|    0.033702|
|        4570|  4.3078e+01|  4.3078e+01|   -9.243283|  1.1424e-05|    0.033691|
|        4580|  4.3078e+01|  4.3078e+01|   -9.245843|  1.1342e-05|    0.033681|
|        4590|  4.3078e+01|  4.3078e+01|   -9.248423|  1.1262e-05|    0.033671|
|        4600|  4.3078e+01|  4.3078e+01|   -9.251053|  1.1183e-05|    0.033661|
+-----------------------------------------------------------------------+
|        File Writing Summary       |              Filename             |
+-----------------------------------------------------------------------+
|SU2 binary restart                 |restart_flow_G5.dat                |
|Paraview                           |flow_G5.vtu                        |
|Paraview surface                   |surface_flow_G5.vtu                |
+-----------------------------------------------------------------------+
+-----------------------------------------------------------------------------+
|  Inner_Iter|     Min CFL|     Max CFL|      rms[P]|  Cauchy[CD]|          CD|
+-----------------------------------------------------------------------------+
|        4610|  4.3078e+01|  4.3078e+01|   -9.253729|  1.1106e-05|    0.033650|
|        4620|  4.3078e+01|  4.3078e+01|   -9.256448|  1.1029e-05|    0.033640|
|        4630|  4.3078e+01|  4.3078e+01|   -9.259220|  1.0954e-05|    0.033630|
|        4640|  4.3078e+01|  4.3078e+01|   -9.262034|  1.0878e-05|    0.033620|
|        4650|  4.3078e+01|  4.3078e+01|   -9.264889|  1.0802e-05|    0.033610|
|        4660|  4.3078e+01|  4.3078e+01|   -9.267789|  1.0727e-05|    0.033600|
|        4670|  4.3078e+01|  4.3078e+01|   -9.270744|  1.0651e-05|    0.033591|
|        4680|  4.3078e+01|  4.3078e+01|   -9.273756|  1.0575e-05|    0.033581|
|        4690|  4.3078e+01|  4.3078e+01|   -9.276826|  1.0498e-05|    0.033571|
|        4700|  4.3078e+01|  4.3078e+01|   -9.279959|  1.0422e-05|    0.033562|
|        4710|  4.3078e+01|  4.3078e+01|   -9.283144|  1.0345e-05|    0.033552|
|        4720|  4.3078e+01|  4.3078e+01|   -9.286376|  1.0269e-05|    0.033543|
|        4730|  4.3078e+01|  4.3078e+01|   -9.289643|  1.0194e-05|    0.033534|
|        4740|  4.3078e+01|  4.3078e+01|   -9.292945|  1.0119e-05|    0.033524|
|        4750|  4.3078e+01|  4.3078e+01|   -9.296261|  1.0045e-05|    0.033515|
|        4760|  4.3078e+01|  4.3078e+01|   -9.299613|  9.9718e-06|    0.033506|
|        4770|  4.3078e+01|  4.3078e+01|   -9.302989|  9.9000e-06|    0.033497|
|        4780|  4.3078e+01|  4.3078e+01|   -9.306396|  9.8293e-06|    0.033488|
|        4790|  4.3078e+01|  4.3078e+01|   -9.309832|  9.7597e-06|    0.033479|
|        4800|  4.3078e+01|  4.3078e+01|   -9.313278|  9.6913e-06|    0.033470|
+-----------------------------------------------------------------------+
|        File Writing Summary       |              Filename             |
+-----------------------------------------------------------------------+
|SU2 binary restart                 |restart_flow_G5.dat                |
|Paraview                           |flow_G5.vtu                        |
|Paraview surface                   |surface_flow_G5.vtu                |
+-----------------------------------------------------------------------+
+-----------------------------------------------------------------------------+
|  Inner_Iter|     Min CFL|     Max CFL|      rms[P]|  Cauchy[CD]|          CD|
+-----------------------------------------------------------------------------+
|        4810|  4.3078e+01|  4.3078e+01|   -9.316736|  9.6239e-06|    0.033461|
|        4820|  4.3078e+01|  4.3078e+01|   -9.320196|  9.5573e-06|    0.033453|
|        4830|  4.3078e+01|  4.3078e+01|   -9.323657|  9.4912e-06|    0.033444|
|        4840|  4.3078e+01|  4.3078e+01|   -9.327108|  9.4253e-06|    0.033435|
|        4850|  4.3078e+01|  4.3078e+01|   -9.330563|  9.3596e-06|    0.033427|
|        4860|  4.3078e+01|  4.3078e+01|   -9.334010|  9.2938e-06|    0.033418|
|        4870|  4.3078e+01|  4.3078e+01|   -9.337464|  9.2279e-06|    0.033410|
|        4880|  4.3078e+01|  4.3078e+01|   -9.340914|  9.1619e-06|    0.033401|
|        4890|  4.3078e+01|  4.3078e+01|   -9.344352|  9.0958e-06|    0.033393|
|        4900|  4.3078e+01|  4.3078e+01|   -9.347771|  9.0297e-06|    0.033385|
|        4910|  4.3078e+01|  4.3078e+01|   -9.351174|  8.9637e-06|    0.033376|
|        4920|  4.3078e+01|  4.3078e+01|   -9.354553|  8.8977e-06|    0.033368|
|        4930|  4.3078e+01|  4.3078e+01|   -9.357917|  8.8320e-06|    0.033360|
|        4940|  4.3078e+01|  4.3078e+01|   -9.361275|  8.7667e-06|    0.033352|
|        4950|  4.3078e+01|  4.3078e+01|   -9.364613|  8.7020e-06|    0.033344|
|        4960|  4.3078e+01|  4.3078e+01|   -9.367938|  8.6380e-06|    0.033336|
|        4970|  4.3078e+01|  4.3078e+01|   -9.371251|  8.5748e-06|    0.033328|
|        4980|  4.3078e+01|  4.3078e+01|   -9.374545|  8.5124e-06|    0.033321|
|        4990|  4.3078e+01|  4.3078e+01|   -9.377824|  8.4507e-06|    0.033313|
|        5000|  4.3078e+01|  4.3078e+01|   -9.381089|  8.3898e-06|    0.033305|
+-----------------------------------------------------------------------+
|        File Writing Summary       |              Filename             |
+-----------------------------------------------------------------------+
|SU2 binary restart                 |restart_flow_G5.dat                |
|Paraview                           |flow_G5.vtu                        |
|Paraview surface                   |surface_flow_G5.vtu                |
+-----------------------------------------------------------------------+
+-----------------------------------------------------------------------------+
|  Inner_Iter|     Min CFL|     Max CFL|      rms[P]|  Cauchy[CD]|          CD|
+-----------------------------------------------------------------------------+
|        5010|  4.3078e+01|  4.3078e+01|   -9.384350|  8.3295e-06|    0.033298|
|        5020|  4.3078e+01|  4.3078e+01|   -9.387611|  8.2697e-06|    0.033290|
|        5030|  4.3078e+01|  4.3078e+01|   -9.390869|  8.2103e-06|    0.033283|
|        5040|  4.3078e+01|  4.3078e+01|   -9.394132|  8.1513e-06|    0.033275|
|        5050|  4.3078e+01|  4.3078e+01|   -9.397365|  8.0926e-06|    0.033268|
|        5060|  4.3078e+01|  4.3078e+01|   -9.399875|  8.0339e-06|    0.033260|
|        5070|  4.3078e+01|  4.3078e+01|   -9.402853|  7.9753e-06|    0.033253|
|        5080|  4.3078e+01|  4.3078e+01|   -9.405930|  7.9167e-06|    0.033246|
|        5090|  4.3078e+01|  4.3078e+01|   -9.409236|  7.8581e-06|    0.033239|
|        5100|  4.3078e+01|  4.3078e+01|   -9.412725|  7.7996e-06|    0.033232|
|        5110|  4.3078e+01|  4.3078e+01|   -9.416254|  7.7411e-06|    0.033225|
|        5120|  4.3078e+01|  4.3078e+01|   -9.419683|  7.6829e-06|    0.033218|
|        5130|  4.3078e+01|  4.3078e+01|   -9.422930|  7.6249e-06|    0.033211|
|        5140|  4.3078e+01|  4.3078e+01|   -9.426025|  7.5673e-06|    0.033204|
|        5150|  4.3078e+01|  4.3078e+01|   -9.429056|  7.5101e-06|    0.033197|
|        5160|  4.3078e+01|  4.3078e+01|   -9.432105|  7.4535e-06|    0.033190|
|        5170|  4.3078e+01|  4.3078e+01|   -9.435207|  7.3975e-06|    0.033183|
|        5180|  4.3078e+01|  4.3078e+01|   -9.438345|  7.3421e-06|    0.033177|
|        5190|  4.3078e+01|  4.3078e+01|   -9.441485|  7.2874e-06|    0.033170|
|        5200|  4.3078e+01|  4.3078e+01|   -9.444593|  7.2333e-06|    0.033163|
+-----------------------------------------------------------------------+
|        File Writing Summary       |              Filename             |
+-----------------------------------------------------------------------+
|SU2 binary restart                 |restart_flow_G5.dat                |
|Paraview                           |flow_G5.vtu                        |
|Paraview surface                   |surface_flow_G5.vtu                |
+-----------------------------------------------------------------------+
+-----------------------------------------------------------------------------+
|  Inner_Iter|     Min CFL|     Max CFL|      rms[P]|  Cauchy[CD]|          CD|
+-----------------------------------------------------------------------------+
|        5210|  4.3078e+01|  4.3078e+01|   -9.447640|  7.1799e-06|    0.033157|
|        5220|  4.3078e+01|  4.3078e+01|   -9.450619|  7.1270e-06|    0.033150|
|        5230|  4.3078e+01|  4.3078e+01|   -9.453582|  7.0745e-06|    0.033144|
|        5240|  4.3078e+01|  4.3078e+01|   -9.456542|  7.0224e-06|    0.033137|
|        5250|  4.3078e+01|  4.3078e+01|   -9.459556|  6.9706e-06|    0.033131|
|        5260|  4.3078e+01|  4.3078e+01|   -9.462604|  6.9190e-06|    0.033125|
|        5270|  4.3078e+01|  4.3078e+01|   -9.465676|  6.8678e-06|    0.033118|
|        5280|  4.3078e+01|  4.3078e+01|   -9.468745|  6.8167e-06|    0.033112|
|        5290|  4.3078e+01|  4.3078e+01|   -9.471804|  6.7657e-06|    0.033106|
|        5300|  4.3078e+01|  4.3078e+01|   -9.474860|  6.7150e-06|    0.033100|
|        5310|  4.3078e+01|  4.3078e+01|   -9.477922|  6.6644e-06|    0.033094|
|        5320|  4.3078e+01|  4.3078e+01|   -9.481013|  6.6141e-06|    0.033088|
|        5330|  4.3078e+01|  4.3078e+01|   -9.484136|  6.5641e-06|    0.033082|
|        5340|  4.3078e+01|  4.3078e+01|   -9.487304|  6.5145e-06|    0.033076|
|        5350|  4.3078e+01|  4.3078e+01|   -9.490497|  6.4654e-06|    0.033070|
|        5360|  4.3078e+01|  4.3078e+01|   -9.493723|  6.4168e-06|    0.033064|
|        5370|  4.3078e+01|  4.3078e+01|   -9.496968|  6.3687e-06|    0.033058|
|        5380|  4.3078e+01|  4.3078e+01|   -9.500223|  6.3212e-06|    0.033053|
|        5390|  4.3078e+01|  4.3078e+01|   -9.503488|  6.2742e-06|    0.033047|
|        5400|  4.3078e+01|  4.3078e+01|   -9.506772|  6.2277e-06|    0.033041|
+-----------------------------------------------------------------------+
|        File Writing Summary       |              Filename             |
+-----------------------------------------------------------------------+
|SU2 binary restart                 |restart_flow_G5.dat                |
|Paraview                           |flow_G5.vtu                        |
|Paraview surface                   |surface_flow_G5.vtu                |
+-----------------------------------------------------------------------+
+-----------------------------------------------------------------------------+
|  Inner_Iter|     Min CFL|     Max CFL|      rms[P]|  Cauchy[CD]|          CD|
+-----------------------------------------------------------------------------+
|        5410|  4.3078e+01|  4.3078e+01|   -9.510069|  6.1817e-06|    0.033035|
|        5420|  4.3078e+01|  4.3078e+01|   -9.513378|  6.1362e-06|    0.033030|
|        5430|  4.3078e+01|  4.3078e+01|   -9.516688|  6.0912e-06|    0.033024|
|        5440|  4.3078e+01|  4.3078e+01|   -9.520011|  6.0465e-06|    0.033019|
|        5450|  4.3078e+01|  4.3078e+01|   -9.523330|  6.0021e-06|    0.033013|
|        5460|  4.3078e+01|  4.3078e+01|   -9.526644|  5.9580e-06|    0.033008|
|        5470|  4.3078e+01|  4.3078e+01|   -9.529940|  5.9142e-06|    0.033002|
|        5480|  4.3078e+01|  4.3078e+01|   -9.533223|  5.8705e-06|    0.032997|
|        5490|  4.3078e+01|  4.3078e+01|   -9.536492|  5.8271e-06|    0.032992|
|        5500|  4.3078e+01|  4.3078e+01|   -9.539750|  5.7838e-06|    0.032986|
|        5510|  4.3078e+01|  4.3078e+01|   -9.543001|  5.7408e-06|    0.032981|
|        5520|  4.3078e+01|  4.3078e+01|   -9.546241|  5.6979e-06|    0.032976|
|        5530|  4.3078e+01|  4.3078e+01|   -9.549469|  5.6553e-06|    0.032971|
|        5540|  4.3078e+01|  4.3078e+01|   -9.552688|  5.6130e-06|    0.032966|
|        5550|  4.3078e+01|  4.3078e+01|   -9.555898|  5.5710e-06|    0.032961|
|        5560|  4.3078e+01|  4.3078e+01|   -9.559100|  5.5294e-06|    0.032956|
|        5570|  4.3078e+01|  4.3078e+01|   -9.562298|  5.4881e-06|    0.032951|
|        5580|  4.3078e+01|  4.3078e+01|   -9.565490|  5.4472e-06|    0.032946|
|        5590|  4.3078e+01|  4.3078e+01|   -9.568680|  5.4066e-06|    0.032941|
|        5600|  4.3078e+01|  4.3078e+01|   -9.571872|  5.3665e-06|    0.032936|
+-----------------------------------------------------------------------+
|        File Writing Summary       |              Filename             |
+-----------------------------------------------------------------------+
|SU2 binary restart                 |restart_flow_G5.dat                |
|Paraview                           |flow_G5.vtu                        |
|Paraview surface                   |surface_flow_G5.vtu                |
+-----------------------------------------------------------------------+
+-----------------------------------------------------------------------------+
|  Inner_Iter|     Min CFL|     Max CFL|      rms[P]|  Cauchy[CD]|          CD|
+-----------------------------------------------------------------------------+
|        5610|  4.3078e+01|  4.3078e+01|   -9.575067|  5.3267e-06|    0.032931|
|        5620|  4.3078e+01|  4.3078e+01|   -9.578262|  5.2872e-06|    0.032926|
|        5630|  4.3078e+01|  4.3078e+01|   -9.581466|  5.2481e-06|    0.032921|
|        5640|  4.3078e+01|  4.3078e+01|   -9.584675|  5.2093e-06|    0.032917|
|        5650|  4.3078e+01|  4.3078e+01|   -9.587894|  5.1708e-06|    0.032912|
|        5660|  4.3078e+01|  4.3078e+01|   -9.591119|  5.1325e-06|    0.032907|
|        5670|  4.3078e+01|  4.3078e+01|   -9.594353|  5.0945e-06|    0.032903|
|        5680|  4.3078e+01|  4.3078e+01|   -9.597597|  5.0566e-06|    0.032898|
|        5690|  4.3078e+01|  4.3078e+01|   -9.600850|  5.0188e-06|    0.032893|
|        5700|  4.3078e+01|  4.3078e+01|   -9.604112|  4.9813e-06|    0.032889|
|        5710|  4.3078e+01|  4.3078e+01|   -9.607383|  4.9439e-06|    0.032884|
|        5720|  4.3078e+01|  4.3078e+01|   -9.610658|  4.9067e-06|    0.032880|
|        5730|  4.3078e+01|  4.3078e+01|   -9.613934|  4.8698e-06|    0.032875|
[...]
|        6340|  4.3078e+01|  4.3078e+01|   -9.809393|  3.0811e-06|    0.032659|
|        6350|  4.3078e+01|  4.3078e+01|   -9.812644|  3.0581e-06|    0.032656|
|        6360|  4.3078e+01|  4.3078e+01|   -9.815896|  3.0353e-06|    0.032653|
|        6370|  4.3078e+01|  4.3078e+01|   -9.819148|  3.0126e-06|    0.032650|
|        6380|  4.3078e+01|  4.3078e+01|   -9.822397|  2.9901e-06|    0.032648|
|        6390|  4.3078e+01|  4.3078e+01|   -9.825641|  2.9678e-06|    0.032645|
|        6400|  4.3078e+01|  4.3078e+01|   -9.828878|  2.9457e-06|    0.032642|
+-----------------------------------------------------------------------+
|        File Writing Summary       |              Filename             |
+-----------------------------------------------------------------------+
|SU2 binary restart                 |restart_flow_G5.dat                |
|Paraview                           |flow_G5.vtu                        |
|Paraview surface                   |surface_flow_G5.vtu                |
+-----------------------------------------------------------------------+
+-----------------------------------------------------------------------------+
|  Inner_Iter|     Min CFL|     Max CFL|      rms[P]|  Cauchy[CD]|          CD|
+-----------------------------------------------------------------------------+
|        6410|  4.3078e+01|  4.3078e+01|   -9.832107|  2.9238e-06|    0.032640|
|        6420|  4.3078e+01|  4.3078e+01|   -9.835331|  2.9020e-06|    0.032637|
|        6430|  4.3078e+01|  4.3078e+01|   -9.838547|  2.8804e-06|    0.032634|
|        6440|  4.3078e+01|  4.3078e+01|   -9.841757|  2.8589e-06|    0.032632|
|        6450|  4.3078e+01|  4.3078e+01|   -9.844960|  2.8376e-06|    0.032629|
|        6460|  4.3078e+01|  4.3078e+01|   -9.848159|  2.8165e-06|    0.032627|
|        6470|  4.3078e+01|  4.3078e+01|   -9.851354|  2.7956e-06|    0.032624|
|        6480|  4.3078e+01|  4.3078e+01|   -9.854546|  2.7747e-06|    0.032622|
|        6490|  4.3078e+01|  4.3078e+01|   -9.857735|  2.7541e-06|    0.032619|
|        6500|  4.3078e+01|  4.3078e+01|   -9.860930|  2.7335e-06|    0.032617|
|        6510|  4.3078e+01|  4.3078e+01|   -9.864124|  2.7131e-06|    0.032614|
|        6520|  4.3078e+01|  4.3078e+01|   -9.867320|  2.6928e-06|    0.032612|
|        6530|  4.3078e+01|  4.3078e+01|   -9.870522|  2.6727e-06|    0.032609|
|        6540|  4.3078e+01|  4.3078e+01|   -9.873728|  2.6527e-06|    0.032607|
|        6550|  4.3078e+01|  4.3078e+01|   -9.876942|  2.6329e-06|    0.032604|
|        6560|  4.3078e+01|  4.3078e+01|   -9.880161|  2.6132e-06|    0.032602|
|        6570|  4.3078e+01|  4.3078e+01|   -9.883390|  2.5936e-06|    0.032600|
|        6580|  4.3078e+01|  4.3078e+01|   -9.886619|  2.5742e-06|    0.032597|
|        6590|  4.3078e+01|  4.3078e+01|   -9.889863|  2.5550e-06|    0.032595|
|        6600|  4.3078e+01|  4.3078e+01|   -9.893112|  2.5358e-06|    0.032593|
+-----------------------------------------------------------------------+
|        File Writing Summary       |              Filename             |
+-----------------------------------------------------------------------+
|SU2 binary restart                 |restart_flow_G5.dat                |
|Paraview                           |flow_G5.vtu                        |
|Paraview surface                   |surface_flow_G5.vtu                |
+-----------------------------------------------------------------------+
+-----------------------------------------------------------------------------+
|  Inner_Iter|     Min CFL|     Max CFL|      rms[P]|  Cauchy[CD]|          CD|
+-----------------------------------------------------------------------------+
|        6610|  4.3078e+01|  4.3078e+01|   -9.896364|  2.5169e-06|    0.032590|
|        6620|  4.3078e+01|  4.3078e+01|   -9.899620|  2.4981e-06|    0.032588|
|        6630|  4.3078e+01|  4.3078e+01|   -9.902878|  2.4795e-06|    0.032586|
|        6640|  4.3078e+01|  4.3078e+01|   -9.906139|  2.4610e-06|    0.032583|
|        6650|  4.3078e+01|  4.3078e+01|   -9.909400|  2.4426e-06|    0.032581|
|        6660|  4.3078e+01|  4.3078e+01|   -9.912661|  2.4244e-06|    0.032579|
|        6670|  4.3078e+01|  4.3078e+01|   -9.915921|  2.4064e-06|    0.032577|
|        6680|  4.3078e+01|  4.3078e+01|   -9.919180|  2.3884e-06|    0.032575|
|        6690|  4.3078e+01|  4.3078e+01|   -9.922436|  2.3706e-06|    0.032572|
|        6700|  4.3078e+01|  4.3078e+01|   -9.925688|  2.3529e-06|    0.032570|
|        6710|  4.3078e+01|  4.3078e+01|   -9.928936|  2.3354e-06|    0.032568|
|        6720|  4.3078e+01|  4.3078e+01|   -9.932179|  2.3180e-06|    0.032566|
|        6730|  4.3078e+01|  4.3078e+01|   -9.935418|  2.3007e-06|    0.032564|
|        6740|  4.3078e+01|  4.3078e+01|   -9.938653|  2.2835e-06|    0.032562|
|        6750|  4.3078e+01|  4.3078e+01|   -9.941883|  2.2664e-06|    0.032560|
|        6760|  4.3078e+01|  4.3078e+01|   -9.945110|  2.2495e-06|    0.032558|
|        6770|  4.3078e+01|  4.3078e+01|   -9.948334|  2.2327e-06|    0.032556|
|        6780|  4.3078e+01|  4.3078e+01|   -9.951555|  2.2161e-06|    0.032554|
|        6790|  4.3078e+01|  4.3078e+01|   -9.954773|  2.1996e-06|    0.032552|
|        6800|  4.3078e+01|  4.3078e+01|   -9.957990|  2.1832e-06|    0.032550|
+-----------------------------------------------------------------------+
|        File Writing Summary       |              Filename             |
+-----------------------------------------------------------------------+
|SU2 binary restart                 |restart_flow_G5.dat                |
|Paraview                           |flow_G5.vtu                        |
|Paraview surface                   |surface_flow_G5.vtu                |
+-----------------------------------------------------------------------+
+-----------------------------------------------------------------------------+
|  Inner_Iter|     Min CFL|     Max CFL|      rms[P]|  Cauchy[CD]|          CD|
+-----------------------------------------------------------------------------+
|        6810|  4.3078e+01|  4.3078e+01|   -9.961206|  2.1669e-06|    0.032548|
|        6820|  4.3078e+01|  4.3078e+01|   -9.964418|  2.1508e-06|    0.032546|
|        6830|  4.3078e+01|  4.3078e+01|   -9.967633|  2.1348e-06|    0.032544|
|        6840|  4.3078e+01|  4.3078e+01|   -9.970850|  2.1189e-06|    0.032542|
|        6850|  4.3078e+01|  4.3078e+01|   -9.974067|  2.1031e-06|    0.032540|
|        6860|  4.3078e+01|  4.3078e+01|   -9.977287|  2.0875e-06|    0.032538|
|        6870|  4.3078e+01|  4.3078e+01|   -9.980509|  2.0719e-06|    0.032536|
|        6880|  4.3078e+01|  4.3078e+01|   -9.983733|  2.0565e-06|    0.032534|
|        6890|  4.3078e+01|  4.3078e+01|   -9.986959|  2.0412e-06|    0.032532|
|        6900|  4.3078e+01|  4.3078e+01|   -9.990187|  2.0260e-06|    0.032531|
|        6910|  4.3078e+01|  4.3078e+01|   -9.993420|  2.0109e-06|    0.032529|
|        6920|  4.3078e+01|  4.3078e+01|   -9.996655|  1.9959e-06|    0.032527|
|        6930|  4.3078e+01|  4.3078e+01|   -9.999890|  1.9810e-06|    0.032525|
|        6940|  4.3078e+01|  4.3078e+01|  -10.003135|  1.9663e-06|    0.032523|
|        6950|  4.3078e+01|  4.3078e+01|  -10.006382|  1.9516e-06|    0.032522|
|        6960|  4.3078e+01|  4.3078e+01|  -10.009631|  1.9370e-06|    0.032520|
|        6970|  4.3078e+01|  4.3078e+01|  -10.012878|  1.9226e-06|    0.032518|
|        6980|  4.3078e+01|  4.3078e+01|  -10.016127|  1.9082e-06|    0.032516|
|        6990|  4.3078e+01|  4.3078e+01|  -10.019376|  1.8940e-06|    0.032515|
|        7000|  4.3078e+01|  4.3078e+01|  -10.022626|  1.8799e-06|    0.032513|
+-----------------------------------------------------------------------+
|        File Writing Summary       |              Filename             |
+-----------------------------------------------------------------------+
|SU2 binary restart                 |restart_flow_G5.dat                |
|Paraview                           |flow_G5.vtu                        |
|Paraview surface                   |surface_flow_G5.vtu                |
+-----------------------------------------------------------------------+
+-----------------------------------------------------------------------------+
|  Inner_Iter|     Min CFL|     Max CFL|      rms[P]|  Cauchy[CD]|          CD|
+-----------------------------------------------------------------------------+
|        7010|  4.3078e+01|  4.3078e+01|  -10.025875|  1.8658e-06|    0.032511|
|        7020|  4.3078e+01|  4.3078e+01|  -10.029124|  1.8519e-06|    0.032509|
|        7030|  4.3078e+01|  4.3078e+01|  -10.032369|  1.8381e-06|    0.032508|
|        7040|  4.3078e+01|  4.3078e+01|  -10.035612|  1.8244e-06|    0.032506|
|        7050|  4.3078e+01|  4.3078e+01|  -10.038853|  1.8108e-06|    0.032504|
|        7060|  4.3078e+01|  4.3078e+01|  -10.042092|  1.7973e-06|    0.032503|
|        7070|  4.3078e+01|  4.3078e+01|  -10.045328|  1.7839e-06|    0.032501|
|        7080|  4.3078e+01|  4.3078e+01|  -10.048561|  1.7706e-06|    0.032500|
|        7090|  4.3078e+01|  4.3078e+01|  -10.051797|  1.7574e-06|    0.032498|
|        7100|  4.3078e+01|  4.3078e+01|  -10.055030|  1.7443e-06|    0.032496|
|        7110|  4.3078e+01|  4.3078e+01|  -10.058265|  1.7313e-06|    0.032495|
|        7120|  4.3078e+01|  4.3078e+01|  -10.061501|  1.7184e-06|    0.032493|
|        7130|  4.3078e+01|  4.3078e+01|  -10.064739|  1.7056e-06|    0.032492|
|        7140|  4.3078e+01|  4.3078e+01|  -10.067980|  1.6929e-06|    0.032490|
|        7150|  4.3078e+01|  4.3078e+01|  -10.071224|  1.6802e-06|    0.032489|
|        7160|  4.3078e+01|  4.3078e+01|  -10.074468|  1.6677e-06|    0.032487|
|        7170|  4.3078e+01|  4.3078e+01|  -10.077715|  1.6552e-06|    0.032486|
|        7180|  4.3078e+01|  4.3078e+01|  -10.080965|  1.6428e-06|    0.032484|
|        7190|  4.3078e+01|  4.3078e+01|  -10.084220|  1.6305e-06|    0.032483|
|        7200|  4.3078e+01|  4.3078e+01|  -10.087479|  1.6184e-06|    0.032481|
+-----------------------------------------------------------------------+
|        File Writing Summary       |              Filename             |
+-----------------------------------------------------------------------+
|SU2 binary restart                 |restart_flow_G5.dat                |
|Paraview                           |flow_G5.vtu                        |
|Paraview surface                   |surface_flow_G5.vtu                |
+-----------------------------------------------------------------------+
+-----------------------------------------------------------------------------+
|  Inner_Iter|     Min CFL|     Max CFL|      rms[P]|  Cauchy[CD]|          CD|
+-----------------------------------------------------------------------------+
|        7210|  4.3078e+01|  4.3078e+01|  -10.090743|  1.6063e-06|    0.032480|
|        7220|  4.3078e+01|  4.3078e+01|  -10.094008|  1.5943e-06|    0.032478|
|        7230|  4.3078e+01|  4.3078e+01|  -10.097275|  1.5824e-06|    0.032477|
|        7240|  4.3078e+01|  4.3078e+01|  -10.100544|  1.5706e-06|    0.032475|
|        7250|  4.3078e+01|  4.3078e+01|  -10.103814|  1.5588e-06|    0.032474|
|        7260|  4.3078e+01|  4.3078e+01|  -10.107084|  1.5472e-06|    0.032472|
|        7270|  4.3078e+01|  4.3078e+01|  -10.110356|  1.5356e-06|    0.032471|
|        7280|  4.3078e+01|  4.3078e+01|  -10.113629|  1.5242e-06|    0.032470|
|        7290|  4.3078e+01|  4.3078e+01|  -10.116902|  1.5128e-06|    0.032468|
|        7300|  4.3078e+01|  4.3078e+01|  -10.120175|  1.5015e-06|    0.032467|
|        7310|  4.3078e+01|  4.3078e+01|  -10.123443|  1.4903e-06|    0.032466|
|        7320|  4.3078e+01|  4.3078e+01|  -10.126713|  1.4791e-06|    0.032464|
|        7330|  4.3078e+01|  4.3078e+01|  -10.129982|  1.4681e-06|    0.032463|
|        7340|  4.3078e+01|  4.3078e+01|  -10.133249|  1.4571e-06|    0.032462|
|        7350|  4.3078e+01|  4.3078e+01|  -10.136514|  1.4462e-06|    0.032460|
|        7360|  4.3078e+01|  4.3078e+01|  -10.139777|  1.4354e-06|    0.032459|
|        7370|  4.3078e+01|  4.3078e+01|  -10.143038|  1.4246e-06|    0.032458|
|        7380|  4.3078e+01|  4.3078e+01|  -10.146296|  1.4140e-06|    0.032456|
|        7390|  4.3078e+01|  4.3078e+01|  -10.149552|  1.4034e-06|    0.032455|
|        7400|  4.3078e+01|  4.3078e+01|  -10.152806|  1.3929e-06|    0.032454|
+-----------------------------------------------------------------------+
|        File Writing Summary       |              Filename             |
+-----------------------------------------------------------------------+
|SU2 binary restart                 |restart_flow_G5.dat                |
|Paraview                           |flow_G5.vtu                        |
|Paraview surface                   |surface_flow_G5.vtu                |
+-----------------------------------------------------------------------+
+-----------------------------------------------------------------------------+
|  Inner_Iter|     Min CFL|     Max CFL|      rms[P]|  Cauchy[CD]|          CD|
+-----------------------------------------------------------------------------+
|        7410|  4.3078e+01|  4.3078e+01|  -10.156058|  1.3824e-06|    0.032453|
|        7420|  4.3078e+01|  4.3078e+01|  -10.159308|  1.3721e-06|    0.032451|
|        7430|  4.3078e+01|  4.3078e+01|  -10.162557|  1.3618e-06|    0.032450|
|        7440|  4.3078e+01|  4.3078e+01|  -10.165798|  1.3516e-06|    0.032449|
|        7450|  4.3078e+01|  4.3078e+01|  -10.169046|  1.3415e-06|    0.032448|
|        7460|  4.3078e+01|  4.3078e+01|  -10.172291|  1.3315e-06|    0.032446|
|        7470|  4.3078e+01|  4.3078e+01|  -10.175535|  1.3215e-06|    0.032445|
|        7480|  4.3078e+01|  4.3078e+01|  -10.178780|  1.3116e-06|    0.032444|
|        7490|  4.3078e+01|  4.3078e+01|  -10.182025|  1.3018e-06|    0.032443|
|        7500|  4.3078e+01|  4.3078e+01|  -10.185271|  1.2920e-06|    0.032442|
|        7510|  4.3078e+01|  4.3078e+01|  -10.188519|  1.2823e-06|    0.032440|
|        7520|  4.3078e+01|  4.3078e+01|  -10.191766|  1.2727e-06|    0.032439|
|        7530|  4.3078e+01|  4.3078e+01|  -10.195017|  1.2632e-06|    0.032438|
|        7540|  4.3078e+01|  4.3078e+01|  -10.198270|  1.2537e-06|    0.032437|
|        7550|  4.3078e+01|  4.3078e+01|  -10.201523|  1.2443e-06|    0.032436|
|        7560|  4.3078e+01|  4.3078e+01|  -10.204779|  1.2350e-06|    0.032435|
|        7570|  4.3078e+01|  4.3078e+01|  -10.208033|  1.2257e-06|    0.032434|
|        7580|  4.3078e+01|  4.3078e+01|  -10.211291|  1.2165e-06|    0.032432|
|        7590|  4.3078e+01|  4.3078e+01|  -10.214551|  1.2074e-06|    0.032431|
|        7600|  4.3078e+01|  4.3078e+01|  -10.217811|  1.1983e-06|    0.032430|
+-----------------------------------------------------------------------+
|        File Writing Summary       |              Filename             |
+-----------------------------------------------------------------------+
|SU2 binary restart                 |restart_flow_G5.dat                |
|Paraview                           |flow_G5.vtu                        |
|Paraview surface                   |surface_flow_G5.vtu                |
+-----------------------------------------------------------------------+
+-----------------------------------------------------------------------------+
|  Inner_Iter|     Min CFL|     Max CFL|      rms[P]|  Cauchy[CD]|          CD|
+-----------------------------------------------------------------------------+
|        7610|  4.3078e+01|  4.3078e+01|  -10.221071|  1.1894e-06|    0.032429|
|        7620|  4.3078e+01|  4.3078e+01|  -10.224332|  1.1804e-06|    0.032428|
|        7630|  4.3078e+01|  4.3078e+01|  -10.227592|  1.1716e-06|    0.032427|
|        7640|  4.3078e+01|  4.3078e+01|  -10.230853|  1.1628e-06|    0.032426|
|        7650|  4.3078e+01|  4.3078e+01|  -10.234113|  1.1541e-06|    0.032425|
|        7660|  4.3078e+01|  4.3078e+01|  -10.237371|  1.1454e-06|    0.032424|
|        7670|  4.3078e+01|  4.3078e+01|  -10.240629|  1.1368e-06|    0.032423|
|        7680|  4.3078e+01|  4.3078e+01|  -10.243886|  1.1283e-06|    0.032422|
|        7690|  4.3078e+01|  4.3078e+01|  -10.247143|  1.1199e-06|    0.032421|
|        7700|  4.3078e+01|  4.3078e+01|  -10.250400|  1.1115e-06|    0.032420|
|        7710|  4.3078e+01|  4.3078e+01|  -10.253656|  1.1032e-06|    0.032419|
|        7720|  4.3078e+01|  4.3078e+01|  -10.256913|  1.0949e-06|    0.032418|
|        7730|  4.3078e+01|  4.3078e+01|  -10.260173|  1.0867e-06|    0.032417|
|        7740|  4.3078e+01|  4.3078e+01|  -10.263430|  1.0786e-06|    0.032416|
|        7750|  4.3078e+01|  4.3078e+01|  -10.266688|  1.0705e-06|    0.032415|
|        7760|  4.3078e+01|  4.3078e+01|  -10.269944|  1.0624e-06|    0.032414|
|        7770|  4.3078e+01|  4.3078e+01|  -10.273203|  1.0545e-06|    0.032413|
|        7780|  4.3078e+01|  4.3078e+01|  -10.276463|  1.0466e-06|    0.032412|
|        7790|  4.3078e+01|  4.3078e+01|  -10.279726|  1.0387e-06|    0.032411|
|        7800|  4.3078e+01|  4.3078e+01|  -10.282988|  1.0309e-06|    0.032410|
+-----------------------------------------------------------------------+
|        File Writing Summary       |              Filename             |
+-----------------------------------------------------------------------+
|SU2 binary restart                 |restart_flow_G5.dat                |
|Paraview                           |flow_G5.vtu                        |
|Paraview surface                   |surface_flow_G5.vtu                |
+-----------------------------------------------------------------------+
+-----------------------------------------------------------------------------+
|  Inner_Iter|     Min CFL|     Max CFL|      rms[P]|  Cauchy[CD]|          CD|
+-----------------------------------------------------------------------------+
|        7810|  4.3078e+01|  4.3078e+01|  -10.286252|  1.0232e-06|    0.032409|
|        7820|  4.3078e+01|  4.3078e+01|  -10.289516|  1.0156e-06|    0.032408|
|        7830|  4.3078e+01|  4.3078e+01|  -10.292781|  1.0079e-06|    0.032407|
|        7840|  4.3078e+01|  4.3078e+01|  -10.296048|  1.0004e-06|    0.032406|
|        7841|  4.3078e+01|  4.3078e+01|  -10.296375|  9.9964e-07|    0.032406|

----------------------------- Solver Exit -------------------------------
All convergence criteria satisfied.
+-----------------------------------------------------------------------+
|      Convergence Field     |     Value    |   Criterion  |  Converged |
+-----------------------------------------------------------------------+
|                      rms[P]|      -10.2964|          < -9|         Yes|
|                  Cauchy[CD]|   9.99639e-07|       < 1e-06|         Yes|
+-----------------------------------------------------------------------+
-------------------------------------------------------------------------
+-----------------------------------------------------------------------+
|        File Writing Summary       |              Filename             |
+-----------------------------------------------------------------------+
|SU2 binary restart                 |restart_flow_G5.dat                |
|Paraview                           |flow_G5.vtu                        |
|Paraview surface                   |surface_flow_G5.vtu                |
+-----------------------------------------------------------------------+

------------------------- Solver Postprocessing -------------------------
Deleted CNumerics container.
Deleted CIntegration container.
Deleted CSolver container.
Deleted CIteration container.
Deleted CInterface container.
Deleted CGeometry container.
Deleted CFreeFormDefBox class.
Deleted CSurfaceMovement class.
Deleted CVolumetricMovement class.
Deleted CConfig container.
Deleted nInst container.
Deleted COutput class.
-------------------------------------------------------------------------

------------------------- Exit Success (SU2_CFD) ------------------------

