
-------------------------------------------------------------------------
|    ___ _   _ ___                                                      |
|   / __| | | |_  )   Release 7.4.0 "Blackbird"                         |
|   \__ \ |_| |/ /                                                      |
|   |___/\___//___|   Suite (Computational Fluid Dynamics Code)         |
|                                                                       |
-------------------------------------------------------------------------
| SU2 Project Website: https://su2code.github.io                        |
|                                                                       |
| The SU2 Project is maintained by the SU2 Foundation                   |
| (http://su2foundation.org)                                            |
-------------------------------------------------------------------------
| Copyright 2012-2022, SU2 Contributors                                 |
|                                                                       |
| SU2 is free software; you can redistribute it and/or                  |
| modify it under the terms of the GNU Lesser General Public            |
| License as published by the Free Software Foundation; either          |
| version 2.1 of the License, or (at your option) any later version.    |
|                                                                       |
| SU2 is distributed in the hope that it will be useful,                |
| but WITHOUT ANY WARRANTY; without even the implied warranty of        |
| MERCHANTABILITY or FITNESS FOR A PARTICULAR PURPOSE. See the GNU      |
| Lesser General Public License for more details.                       |
|                                                                       |
| You should have received a copy of the GNU Lesser General Public      |
| License along with SU2. If not, see <http://www.gnu.org/licenses/>.   |
-------------------------------------------------------------------------

Parsing config file for zone 0

----------------- Physical Case Definition ( Zone 0 ) -------------------
Incompressible RANS equations.
Turbulence model: Spalart-Allmaras-noft2
Hybrid RANS/LES: No Hybrid RANS/LES
No restart solution, use the values at infinity (freestream).
Non-Dimensional simulation using intialization values.
The reference area is 1 m^2.
The semi-span will be computed using the max y(3D) value.
The reference length is 1.00898 m.
Reference origin for moment evaluation is (-0.756, 0, 0).
Surface(s) where the force coefficients are evaluated: AIRFOIL.

Surface(s) plotted in the output file: AIRFOIL.
Input mesh file name: ../meshG5/meshG5.su2

--------------- Space Numerical Integration ( Zone 0 ) ------------------
Flux difference splitting (FDS) upwind scheme for the flow inviscid terms.
First order integration in space.
Average of gradients with correction (viscous flow terms).
Average of gradients with correction (viscous turbulence terms).
Gradient for upwind reconstruction: unweighted Least-Squares.
Gradient for viscous and source terms: Green-Gauss.

--------------- Time Numerical Integration  ( Zone 0 ) ------------------
Local time stepping (steady state simulation).
Euler implicit method for the flow equations.
FGMRES is used for solving the linear system.
Using a ILU(0) preconditioning.
Convergence criteria of the linear solver: 1e-06.
Max number of linear iterations: 10.
CFL adaptation. Factor down: 0.1, factor up: 1.2,
                lower limit: 1, upper limit: 1000,
                acceptable linear residual: 0.001.
Courant-Friedrichs-Lewy number:        2
Euler implicit time integration for the turbulence model.

------------------ Convergence Criteria  ( Zone 0 ) ---------------------
Maximum number of solver subiterations: 9999.
Begin convergence monitoring at iteration 10.
Residual minimum value: 1e-9.
Cauchy series min. value: 1e-06.
Number of Cauchy elements: 250.
Begin windowed time average at iteration 0.

-------------------- Output Information ( Zone 0 ) ----------------------
File writing frequency: 
+------------------------------------+
|                     File| Frequency|
+------------------------------------+
|                  RESTART|       200|
|                 PARAVIEW|       200|
|         SURFACE_PARAVIEW|       200|
+------------------------------------+
Writing the convergence history file every 1 inner iterations.
Writing the screen convergence history every 10 inner iterations.
The tabular file format is CSV (.csv).
Convergence history file name: history_G5.
Forces breakdown file name: forces_breakdown.dat.
Surface file name: surface_flow_G5.
Volume file name: flow_G5.
Restart file name: restart_flow_G5.dat.

------------- Config File Boundary Information ( Zone 0 ) ---------------
+-----------------------------------------------------------------------+
|                        Marker Type|                        Marker Name|
+-----------------------------------------------------------------------+
|                          Far-field|                           FARFIELD|
+-----------------------------------------------------------------------+
|                     Heat flux wall|                            AIRFOIL|
+-----------------------------------------------------------------------+

-------------------- Output Preprocessing ( Zone 0 ) --------------------

WARNING: SURFACE_PRESSURE_DROP can only be computed for at least 2 surfaces (outlet, inlet, ...)

Screen output fields: INNER_ITER, MIN_CFL, MAX_CFL, RMS_PRESSURE, CAUCHY_DRAG, DRAG
History output group(s): INNER_ITER, MIN_CFL, MAX_CFL, RMS_RES, LIFT, DRAG, MOMENT_Z, CAUCHY
Convergence field(s): RMS_PRESSURE, DRAG
Warning: No (valid) fields chosen for time convergence monitoring. Time convergence monitoring inactive.
Volume output fields: COORDINATES, SOLUTION, PRIMITIVE, RESIDUAL, MESH_QUALITY

------------------- Geometry Preprocessing ( Zone 0 ) -------------------
Two dimensional problem.
361479 grid points before partitioning.
360180 volume elements before partitioning.
2 surface markers.
724 boundary elements in index 0 (Marker = AIRFOIL).
1874 boundary elements in index 1 (Marker = FARFIELD).
Executing the partitioning functions.
Building the graph adjacency structure.
Calling ParMETIS... graph partitioning complete (6418 edge cuts).
Distributing ParMETIS coloring.
Rebalancing vertices.
Rebalancing volume element connectivity.
Rebalancing markers and surface elements.
374376 vertices including ghost points. 
366605 interior elements including halo cells. 
366605 quadrilaterals.
Establishing MPI communication patterns.
Setting point connectivity.
Renumbering points (Reverse Cuthill McKee Ordering).
Recomputing point connectivity.
Setting element connectivity.
Checking the numerical grid orientation.
All volume elements are correctly orientend.
There has been a re-orientation of 1306 LINE surface elements.
Identifying edges and vertices.
Setting the control volume structure.
Area of the computational grid: 102925.
Searching for the closest normal neighbors to the surfaces.
Storing a mapping from global to local point index.
Compute the surface curvature.
Max K: 227502. Mean K: 205.598. Standard deviation K: 4719.73.
Checking for periodicity.
Computing mesh quality statistics for the dual control volumes.
+--------------------------------------------------------------+
|           Mesh Quality Metric|        Minimum|        Maximum|
+--------------------------------------------------------------+
|    Orthogonality Angle (deg.)|        75.9136|             90|
|     CV Face Area Aspect Ratio|        1.00002|    3.17894e+06|
|           CV Sub-Volume Ratio|              1|         387.07|
+--------------------------------------------------------------+
Finding max control volume width.
Communicating number of neighbors.
Wetted area = 2.0597 m.
Area projection in the x-plane = 0.121116 m, y-plane = 1.00881 m.
Max. coordinate in the x-direction = 1.00898 m, y-direction = 0.0759837 m.
Min. coordinate in the x-direction = 4.86614e-06 m, y-direction = -0.0451345 m.
Computing wall distances.

-------------------- Solver Preprocessing ( Zone 0 ) --------------------
Incompressible flow: rho_ref, vel_ref, and temp_ref
are based on the initial values, p_ref = rho_ref*vel_ref^2.
Force coefficients computed using initial values.
The reference area for force coeffs. is 1 m^2.
The reference length for force coeffs. is 1.00898 m.
The pressure is decomposed into thermodynamic and dynamic components.
The initial value of the dynamic pressure is 0.
Mach number: 0.0276747, computed using the Bulk modulus.
For external flows, the initial state is imposed at the far-field.
Angle of attack (deg): 14, computed using the initial velocity.
Side slip angle (deg): 0, computed using the initial velocity.
Reynolds number per meter: 594999, computed using initial values.
Reynolds number is a byproduct of inputs only (not used internally).
SI units only. The grid should be dimensional (meters).
No energy equation.

-- Models:
+------------------------------------------------------------------------------+
|          Viscosity Model|        Conductivity Model|              Fluid Model|
+------------------------------------------------------------------------------+
|       CONSTANT_VISCOSITY|          CONSTANT_PRANDTL|         CONSTANT_DENSITY|
+------------------------------------------------------------------------------+
-- Fluid properties:
+------------------------------------------------------------------------------+
|                  Name|    Dim. value|    Ref. value|      Unit|Non-dim. value|
+------------------------------------------------------------------------------+
|             Viscosity|      1.92e-05|        11.424|   N.s/m^2|   1.68067e-06|
+------------------------------------------------------------------------------+
|        Prandtl (Lam.)|             -|             -|         -|          0.72|
|       Prandtl (Turb.)|             -|             -|         -|           0.9|
+------------------------------------------------------------------------------+
|          Bulk Modulus|        142000|             1|        Pa|        142000|
+------------------------------------------------------------------------------+
-- Initial and free-stream conditions:
+------------------------------------------------------------------------------+
|                  Name|    Dim. value|    Ref. value|      Unit|Non-dim. value|
+------------------------------------------------------------------------------+
|      Dynamic Pressure|             0|       108.756|        Pa|             0|
|        Total Pressure|       54.3781|       108.756|        Pa|           0.5|
|               Density|           1.2|           1.2|    kg/m^3|             1|
|            Velocity-X|        9.2372|       9.51999|       m/s|      0.970296|
|            Velocity-Y|        2.3031|       9.51999|       m/s|      0.241923|
|    Velocity Magnitude|       9.51999|       9.51999|       m/s|             1|
+------------------------------------------------------------------------------+
|             Viscosity|      1.92e-05|        11.424|   N.s/m^2|   1.68067e-06|
|          Conductivity|             -|       3.59312|   W/m^2.K|             -|
|     Turb. Kin. Energy|       1.35945|       90.6301|   m^2/s^2|         0.015|
|     Spec. Dissipation|       8496.58|       9.51999|       1/s|       892.499|
+------------------------------------------------------------------------------+
|           Mach Number|             -|             -|         -|     0.0276747|
|       Reynolds Number|             -|             -|         -|        594999|
+------------------------------------------------------------------------------+
Initialize Jacobian structure (Navier-Stokes). MG level: 0.
Initialize Jacobian structure (SA model).

------------------- Numerics Preprocessing ( Zone 0 ) -------------------

----------------- Integration Preprocessing ( Zone 0 ) ------------------

------------------- Iteration Preprocessing ( Zone 0 ) ------------------
Euler/Navier-Stokes/RANS fluid iteration.

------------------------------ Begin Solver -----------------------------

Simulation Run using the Single-zone Driver
+-----------------------------------------------------------------------------+
|  Inner_Iter|     Min CFL|     Max CFL|      rms[P]|  Cauchy[CD]|          CD|
+-----------------------------------------------------------------------------+
|           0|  2.4000e+00|  2.4000e+00|   -4.390319|  1.0000e+00|    0.672609|
|          10|  1.4860e+01|  1.4860e+01|   -5.120427|  1.1839e-03|    0.887671|
|          20|  7.6675e+00|  7.6675e+00|   -5.289039|  1.2765e-03|    0.867394|
|          30|  3.9563e+00|  3.9563e+00|   -5.219258|  1.5111e-03|    0.818208|
|          40|  2.4496e+01|  2.4496e+01|   -5.170592|  1.7877e-03|    0.763796|
|          50|  8.7774e+00|  8.7774e+00|   -5.132470|  2.6553e-03|    0.616880|
|          60|  4.5290e+00|  4.5290e+00|   -5.116585|  3.7112e-03|    0.475955|
|          70|  2.8042e+01|  2.8042e+01|   -5.110347|  4.3910e-03|    0.402316|
|          80|  1.4469e+01|  1.4469e+01|   -5.122860|  5.4344e-03|    0.311619|
|          90|  7.4657e+00|  7.4657e+00|   -5.201698|  7.0630e-03|    0.209748|
|         100|  3.8522e+00|  3.8522e+00|   -5.224703|  8.6602e-03|    0.142021|
|         110|  2.3852e+01|  2.3852e+01|   -5.230104|  9.3691e-03|    0.119181|
|         120|  1.2307e+01|  1.2307e+01|   -5.237330|  1.0381e-02|    0.092644|
|         130|  6.3501e+00|  6.3501e+00|   -5.243205|  1.1564e-02|    0.063077|
|         140|  3.9318e+01|  3.9318e+01|   -5.239160|  1.2657e-02|    0.035753|
|         150|  2.0287e+01|  2.0287e+01|   -5.239522|  1.3562e-02|    0.013111|
|         160|  1.0468e+01|  1.0468e+01|   -5.234468|  1.4874e-02|   -0.019690|
|         170|  5.4011e+00|  5.4011e+00|   -5.228532|  1.5798e-02|   -0.042783|
|         180|  3.3442e+01|  3.3442e+01|   -5.226620|  1.5986e-02|   -0.040346|
|         190|  8.3216e+00|  8.3216e+00|   -5.253580|  1.7996e-02|    0.009912|
|         200|  4.2937e+00|  4.2937e+00|   -5.261687|  2.1146e-02|    0.088639|
+-----------------------------------------------------------------------+
|        File Writing Summary       |              Filename             |
+-----------------------------------------------------------------------+
|SU2 binary restart                 |restart_flow_G5.dat                |
|Paraview                           |flow_G5.vtu                        |
|Paraview surface                   |surface_flow_G5.vtu                |
+-----------------------------------------------------------------------+
+-----------------------------------------------------------------------------+
|  Inner_Iter|     Min CFL|     Max CFL|      rms[P]|  Cauchy[CD]|          CD|
+-----------------------------------------------------------------------------+
|         210|  2.6586e+01|  2.6586e+01|   -5.259317|  2.2799e-02|    0.136163|
|         220|  1.3718e+01|  1.3718e+01|   -5.255121|  2.4553e-02|    0.214765|
|         230|  4.9153e+01|  4.9153e+01|   -5.276586|  2.5849e-02|    0.298575|
|         240|  2.5362e+01|  2.5362e+01|   -5.288024|  2.6010e-02|    0.310962|
|         250|  1.3086e+01|  1.3086e+01|   -5.281084|  2.6200e-02|    0.296597|
|         260|  6.7521e+00|  6.7521e+00|   -5.276126|  2.5817e-02|    0.243557|
|         270|  4.1807e+01|  4.1807e+01|   -5.273987|  2.6735e-02|    0.189977|
|         280|  8.6692e+00|  8.6692e+00|   -5.261405|  2.8776e-02|    0.109715|
|         290|  4.4731e+00|  4.4731e+00|   -5.259536|  2.9412e-02|    0.086551|
|         300|  2.7696e+01|  2.7696e+01|   -5.269041|  2.8627e-02|    0.086207|
|         310|  1.4291e+01|  1.4291e+01|   -5.286054|  2.8131e-02|    0.100215|
|         320|  4.2672e+01|  4.2672e+01|   -5.293149|  2.8649e-02|    0.135861|
|         330|  2.2018e+01|  2.2018e+01|   -5.307588|  2.8057e-02|    0.152295|
|         340|  1.1361e+01|  1.1361e+01|   -5.330649|  2.6717e-02|    0.163768|
|         350|  5.8619e+00|  5.8619e+00|   -5.327596|  2.5166e-02|    0.165611|
|         360|  3.6295e+01|  3.6295e+01|   -5.320925|  2.4461e-02|    0.165533|
|         370|  5.2265e+01|  5.2265e+01|   -5.344721|  2.3615e-02|    0.172563|
|         380|  2.6968e+01|  2.6968e+01|   -5.368147|  2.2504e-02|    0.175701|
|         390|  6.7104e+00|  6.7104e+00|   -5.408160|  2.1597e-02|    0.169183|
|         400|  4.1549e+01|  4.1549e+01|   -5.410146|  2.0960e-02|    0.158236|
+-----------------------------------------------------------------------+
|        File Writing Summary       |              Filename             |
+-----------------------------------------------------------------------+
|SU2 binary restart                 |restart_flow_G5.dat                |
|Paraview                           |flow_G5.vtu                        |
|Paraview surface                   |surface_flow_G5.vtu                |
+-----------------------------------------------------------------------+
+-----------------------------------------------------------------------------+
|  Inner_Iter|     Min CFL|     Max CFL|      rms[P]|  Cauchy[CD]|          CD|
+-----------------------------------------------------------------------------+
|         410|  2.1438e+01|  2.1438e+01|   -5.408351|  2.0034e-02|    0.143792|
|         420|  1.1062e+01|  1.1062e+01|   -5.399239|  1.9720e-02|    0.123687|
|         430|  4.7563e+01|  4.7563e+01|   -5.388550|  2.0036e-02|    0.109124|
|         440|  4.7563e+01|  4.7563e+01|   -5.428997|  1.8336e-02|    0.113398|
|         450|  2.0451e+01|  2.0451e+01|   -5.489500|  1.5517e-02|    0.123217|
|         460|  6.1067e+00|  6.1067e+00|   -5.545924|  1.4489e-02|    0.144277|
|         470|  3.7811e+01|  3.7811e+01|   -5.542971|  1.2923e-02|    0.151254|
|         480|  9.4087e+00|  9.4087e+00|   -5.537154|  1.1853e-02|    0.160054|
|         490|  5.8256e+01|  5.8256e+01|   -5.547197|  1.1752e-02|    0.158038|
|         500|  3.0059e+01|  3.0059e+01|   -5.574710|  1.1700e-02|    0.152681|
|         510|  1.2925e+01|  1.2925e+01|   -5.626400|  1.1204e-02|    0.141582|
|         520|  6.6689e+00|  6.6689e+00|   -5.681785|  1.0580e-02|    0.128595|
|         530|  4.1292e+01|  4.1292e+01|   -5.700962|  8.5300e-03|    0.121564|
|         540|  2.1306e+01|  2.1306e+01|   -5.720763|  7.8406e-03|    0.115004|
|         550|  5.3016e+01|  5.3016e+01|   -5.732480|  7.8925e-03|    0.111661|
|         560|  2.7355e+01|  2.7355e+01|   -5.743178|  7.3825e-03|    0.113073|
|         570|  1.4115e+01|  1.4115e+01|   -5.772058|  6.3382e-03|    0.117489|
|         580|  6.0690e+01|  6.0690e+01|   -5.828624|  6.1489e-03|    0.125491|
|         590|  3.1315e+01|  3.1315e+01|   -5.883669|  5.9872e-03|    0.129558|
|         600|  5.4112e+01|  5.4112e+01|   -5.968708|  6.0886e-03|    0.134411|
+-----------------------------------------------------------------------+
|        File Writing Summary       |              Filename             |
+-----------------------------------------------------------------------+
|SU2 binary restart                 |restart_flow_G5.dat                |
|Paraview                           |flow_G5.vtu                        |
|Paraview surface                   |surface_flow_G5.vtu                |
+-----------------------------------------------------------------------+
+-----------------------------------------------------------------------------+
|  Inner_Iter|     Min CFL|     Max CFL|      rms[P]|  Cauchy[CD]|          CD|
+-----------------------------------------------------------------------------+
|         610|  5.4112e+01|  5.4112e+01|   -5.910003|  6.2246e-03|    0.129805|
|         620|  5.4112e+01|  5.4112e+01|   -6.017324|  6.3476e-03|    0.120788|
|         630|  5.4112e+01|  5.4112e+01|   -6.305816|  6.4569e-03|    0.115450|
|         640|  5.4112e+01|  5.4112e+01|   -6.150087|  6.3654e-03|    0.118058|
|         650|  1.6158e+01|  1.6158e+01|   -6.156209|  6.1858e-03|    0.120726|
|         660|  8.3370e+00|  8.3370e+00|   -6.263775|  5.8665e-03|    0.122756|
|         670|  5.1620e+01|  5.1620e+01|   -6.374047|  5.2731e-03|    0.123238|
|         680|  5.1620e+01|  5.1620e+01|   -6.338123|  4.8549e-03|    0.120609|
|         690|  2.6635e+01|  2.6635e+01|   -6.251205|  4.5867e-03|    0.119349|
|         700|  1.3743e+01|  1.3743e+01|   -6.205422|  4.3160e-03|    0.117599|
|         710|  4.9244e+01|  4.9244e+01|   -6.250089|  3.7451e-03|    0.115994|
|         720|  4.9244e+01|  4.9244e+01|   -6.524554|  3.5848e-03|    0.115185|
|         730|  4.9244e+01|  4.9244e+01|   -6.419378|  3.3699e-03|    0.115465|
|         740|  1.7645e+01|  1.7645e+01|   -6.356318|  3.3220e-03|    0.115839|
|         750|  5.2688e+01|  5.2688e+01|   -6.411662|  3.1970e-03|    0.116223|
|         760|  5.2688e+01|  5.2688e+01|   -6.655790|  2.9304e-03|    0.115150|
|         770|  6.3225e+00|  6.3225e+00|   -6.459613|  2.6480e-03|    0.112175|
|         780|  3.9147e+01|  3.9147e+01|   -6.418148|  2.4555e-03|    0.111250|
|         790|  5.6372e+01|  5.6372e+01|   -6.496558|  2.2942e-03|    0.109549|
|         800|  6.7647e+01|  6.7647e+01|   -6.679443|  2.1790e-03|    0.109960|
+-----------------------------------------------------------------------+
|        File Writing Summary       |              Filename             |
+-----------------------------------------------------------------------+
|SU2 binary restart                 |restart_flow_G5.dat                |
|Paraview                           |flow_G5.vtu                        |
|Paraview surface                   |surface_flow_G5.vtu                |
+-----------------------------------------------------------------------+
+-----------------------------------------------------------------------------+
|  Inner_Iter|     Min CFL|     Max CFL|      rms[P]|  Cauchy[CD]|          CD|
+-----------------------------------------------------------------------------+
|         810|  3.4904e+01|  3.4904e+01|   -6.644373|  2.1426e-03|    0.110342|
|         820|  6.0314e+01|  6.0314e+01|   -6.607052|  2.0131e-03|    0.110986|
|         830|  6.0314e+01|  6.0314e+01|   -6.758117|  1.7751e-03|    0.110316|
|         840|  1.0422e+01|  1.0422e+01|   -6.696608|  1.6963e-03|    0.108990|
|         850|  6.4532e+01|  6.4532e+01|   -6.652596|  1.5826e-03|    0.108094|
|         860|  3.3297e+01|  3.3297e+01|   -6.642013|  1.4640e-03|    0.107523|
|         870|  5.7538e+01|  5.7538e+01|   -6.706679|  1.1993e-03|    0.106870|
|         880|  5.7538e+01|  5.7538e+01|   -6.780524|  1.0421e-03|    0.107513|
|         890|  5.7538e+01|  5.7538e+01|   -6.848921|  9.7502e-04|    0.108259|
|         900|  5.7538e+01|  5.7538e+01|   -6.971433|  9.0052e-04|    0.107933|
|         910|  6.9045e+00|  6.9045e+00|   -6.906219|  8.7979e-04|    0.106702|
|         920|  4.2751e+01|  4.2751e+01|   -6.876931|  8.7845e-04|    0.106320|
|         930|  2.2059e+01|  2.2059e+01|   -6.858260|  8.0701e-04|    0.105925|
|         940|  1.1382e+01|  1.1382e+01|   -6.853710|  7.7428e-04|    0.105679|
|         950|  7.0473e+01|  7.0473e+01|   -6.855687|  7.1930e-04|    0.105771|
|         960|  3.6362e+01|  3.6362e+01|   -6.860938|  6.7344e-04|    0.106013|
|         970|  1.8762e+01|  1.8762e+01|   -6.869483|  6.6072e-04|    0.106419|
|         980|  9.6809e+00|  9.6809e+00|   -6.888287|  6.7006e-04|    0.106944|
|         990|  5.9941e+01|  5.9941e+01|   -6.903540|  6.6838e-04|    0.107245|
|        1000|  3.0928e+01|  3.0928e+01|   -6.922905|  6.6000e-04|    0.107376|
+-----------------------------------------------------------------------+
|        File Writing Summary       |              Filename             |
+-----------------------------------------------------------------------+
|SU2 binary restart                 |restart_flow_G5.dat                |
|Paraview                           |flow_G5.vtu                        |
|Paraview surface                   |surface_flow_G5.vtu                |
+-----------------------------------------------------------------------+
+-----------------------------------------------------------------------------+
|  Inner_Iter|     Min CFL|     Max CFL|      rms[P]|  Cauchy[CD]|          CD|
+-----------------------------------------------------------------------------+
|        1010|  1.3299e+01|  1.3299e+01|   -6.931609|  6.2758e-04|    0.107256|
|        1020|  6.8618e+00|  6.8618e+00|   -6.922233|  5.3805e-04|    0.106846|
|        1030|  4.2487e+01|  4.2487e+01|   -6.912249|  5.1507e-04|    0.106575|
|        1040|  2.1922e+01|  2.1922e+01|   -6.894274|  4.7034e-04|    0.106124|
|        1050|  6.5459e+01|  6.5459e+01|   -6.874379|  4.6705e-04|    0.105699|
|        1060|  6.5459e+01|  6.5459e+01|   -6.878060|  4.6547e-04|    0.105985|
|        1070|  6.5459e+01|  6.5459e+01|   -6.901077|  4.6860e-04|    0.106687|
|        1080|  6.5459e+01|  6.5459e+01|   -6.926279|  4.5343e-04|    0.106906|
|        1090|  3.3776e+01|  3.3776e+01|   -6.942043|  4.0922e-04|    0.106794|
|        1100|  1.4523e+01|  1.4523e+01|   -6.949392|  3.8608e-04|    0.106529|
|        1110|  7.4935e+00|  7.4935e+00|   -6.946037|  3.7601e-04|    0.106234|
|        1120|  4.6398e+01|  4.6398e+01|   -6.947823|  3.5623e-04|    0.106112|
|        1130|  2.3940e+01|  2.3940e+01|   -6.944526|  3.3643e-04|    0.106001|
|        1140|  7.1485e+01|  7.1485e+01|   -6.932460|  3.1207e-04|    0.106061|
|        1150|  7.1485e+01|  7.1485e+01|   -6.924965|  3.0759e-04|    0.106333|
|        1160|  7.1485e+01|  7.1485e+01|   -6.933894|  2.6538e-04|    0.106355|
|        1170|  7.1485e+01|  7.1485e+01|   -6.952072|  2.6173e-04|    0.106071|
|        1180|  3.0737e+01|  3.0737e+01|   -6.967949|  2.5246e-04|    0.105922|
|        1190|  1.5860e+01|  1.5860e+01|   -6.973557|  2.4764e-04|    0.105803|
|        1200|  8.1833e+00|  8.1833e+00|   -6.973113|  2.4638e-04|    0.105726|
+-----------------------------------------------------------------------+
|        File Writing Summary       |              Filename             |
+-----------------------------------------------------------------------+
|SU2 binary restart                 |restart_flow_G5.dat                |
|Paraview                           |flow_G5.vtu                        |
|Paraview surface                   |surface_flow_G5.vtu                |
+-----------------------------------------------------------------------+
+-----------------------------------------------------------------------------+
|  Inner_Iter|     Min CFL|     Max CFL|      rms[P]|  Cauchy[CD]|          CD|
+-----------------------------------------------------------------------------+
|        1210|  5.0669e+01|  5.0669e+01|   -6.979669|  2.3801e-04|    0.105706|
|        1220|  7.2963e+01|  7.2963e+01|   -6.980868|  2.2400e-04|    0.105672|
|        1230|  7.2963e+01|  7.2963e+01|   -6.996084|  2.0924e-04|    0.105542|
|        1240|  7.2963e+01|  7.2963e+01|   -7.021399|  2.0738e-04|    0.105295|
|        1250|  7.2963e+01|  7.2963e+01|   -7.054067|  2.1184e-04|    0.105049|
|        1260|  7.2963e+01|  7.2963e+01|   -7.091443|  2.1357e-04|    0.104880|
|        1270|  7.2963e+01|  7.2963e+01|   -7.133410|  2.0410e-04|    0.104727|
|        1280|  7.2963e+01|  7.2963e+01|   -7.175264|  2.0190e-04|    0.104519|
|        1290|  7.2963e+01|  7.2963e+01|   -7.212239|  1.9406e-04|    0.104281|
|        1300|  7.2963e+01|  7.2963e+01|   -7.240623|  1.8595e-04|    0.104074|
|        1310|  7.2963e+01|  7.2963e+01|   -7.259150|  1.8011e-04|    0.103907|
|        1320|  7.2963e+01|  7.2963e+01|   -7.266759|  1.6020e-04|    0.103739|
|        1330|  7.2963e+01|  7.2963e+01|   -7.264191|  1.5804e-04|    0.103553|
|        1340|  2.6144e+01|  2.6144e+01|   -7.261133|  1.5766e-04|    0.103454|
|        1350|  7.8065e+01|  7.8065e+01|   -7.250623|  1.5277e-04|    0.103324|
|        1360|  7.8065e+01|  7.8065e+01|   -7.239095|  1.4728e-04|    0.103179|
|        1370|  7.8065e+01|  7.8065e+01|   -7.229200|  1.4760e-04|    0.103052|
|        1380|  7.8065e+01|  7.8065e+01|   -7.222724|  1.4831e-04|    0.102926|
|        1390|  7.8065e+01|  7.8065e+01|   -7.220163|  1.4952e-04|    0.102811|
|        1400|  7.8065e+01|  7.8065e+01|   -7.223458|  1.4264e-04|    0.102724|
+-----------------------------------------------------------------------+
|        File Writing Summary       |              Filename             |
+-----------------------------------------------------------------------+
|SU2 binary restart                 |restart_flow_G5.dat                |
|Paraview                           |flow_G5.vtu                        |
|Paraview surface                   |surface_flow_G5.vtu                |
+-----------------------------------------------------------------------+
+-----------------------------------------------------------------------------+
|  Inner_Iter|     Min CFL|     Max CFL|      rms[P]|  Cauchy[CD]|          CD|
+-----------------------------------------------------------------------------+
|        1410|  7.8065e+01|  7.8065e+01|   -7.233758|  1.4158e-04|    0.102657|
|        1420|  7.8065e+01|  7.8065e+01|   -7.250922|  1.3321e-04|    0.102597|
|        1430|  7.8065e+01|  7.8065e+01|   -7.274595|  1.2944e-04|    0.102549|
|        1440|  2.7972e+01|  2.7972e+01|   -7.293513|  1.2560e-04|    0.102533|
|        1450|  1.4433e+01|  1.4433e+01|   -7.308098|  1.2326e-04|    0.102518|
|        1460|  7.4471e+01|  7.4471e+01|   -7.321289|  1.2299e-04|    0.102505|
|        1470|  7.4471e+01|  7.4471e+01|   -7.359248|  1.2228e-04|    0.102491|
|        1480|  7.4471e+01|  7.4471e+01|   -7.404830|  1.1756e-04|    0.102485|
|        1490|  7.4471e+01|  7.4471e+01|   -7.456381|  1.0830e-04|    0.102488|
|        1500|  7.4471e+01|  7.4471e+01|   -7.510381|  9.9063e-05|    0.102490|
|        1510|  7.4471e+01|  7.4471e+01|   -7.561703|  9.2901e-05|    0.102497|
|        1520|  7.4471e+01|  7.4471e+01|   -7.601409|  8.7525e-05|    0.102509|
|        1530|  7.4471e+01|  7.4471e+01|   -7.620717|  8.0090e-05|    0.102523|
|        1540|  7.4471e+01|  7.4471e+01|   -7.618206|  7.1523e-05|    0.102537|
|        1550|  7.4471e+01|  7.4471e+01|   -7.600846|  6.4153e-05|    0.102551|
|        1560|  2.2237e+01|  2.2237e+01|   -7.588642|  5.8092e-05|    0.102561|
|        1570|  7.9679e+01|  7.9679e+01|   -7.571126|  5.1978e-05|    0.102570|
|        1580|  7.9679e+01|  7.9679e+01|   -7.552907|  4.5398e-05|    0.102586|
|        1590|  7.9679e+01|  7.9679e+01|   -7.542668|  4.2191e-05|    0.102601|
|        1600|  7.9679e+01|  7.9679e+01|   -7.542852|  3.7715e-05|    0.102615|
+-----------------------------------------------------------------------+
|        File Writing Summary       |              Filename             |
+-----------------------------------------------------------------------+
|SU2 binary restart                 |restart_flow_G5.dat                |
|Paraview                           |flow_G5.vtu                        |
|Paraview surface                   |surface_flow_G5.vtu                |
+-----------------------------------------------------------------------+
+-----------------------------------------------------------------------------+
|  Inner_Iter|     Min CFL|     Max CFL|      rms[P]|  Cauchy[CD]|          CD|
+-----------------------------------------------------------------------------+
|        1610|  7.9679e+01|  7.9679e+01|   -7.553954|  3.2459e-05|    0.102625|
|        1620|  7.9679e+01|  7.9679e+01|   -7.575543|  2.7955e-05|    0.102635|
|        1630|  7.9679e+01|  7.9679e+01|   -7.607316|  2.3473e-05|    0.102646|
|        1640|  7.9679e+01|  7.9679e+01|   -7.649054|  1.9365e-05|    0.102656|
|        1650|  7.9679e+01|  7.9679e+01|   -7.700210|  1.6372e-05|    0.102665|
|        1660|  7.9679e+01|  7.9679e+01|   -7.759946|  1.4115e-05|    0.102674|
|        1670|  1.6522e+01|  1.6522e+01|   -7.811351|  1.2047e-05|    0.102681|
|        1680|  8.5251e+00|  8.5251e+00|   -7.839369|  1.0337e-05|    0.102684|
|        1690|  5.2785e+01|  5.2785e+01|   -7.863789|  9.8132e-06|    0.102686|
|        1700|  7.6011e+01|  7.6011e+01|   -7.917943|  9.6214e-06|    0.102697|
|        1710|  7.6011e+01|  7.6011e+01|   -7.971966|  9.6135e-06|    0.102709|
|        1720|  7.6011e+01|  7.6011e+01|   -8.004960|  9.7079e-06|    0.102726|
|        1730|  1.3135e+01|  1.3135e+01|   -8.014322|  9.8746e-06|    0.102736|
|        1740|  8.1327e+01|  8.1327e+01|   -8.013026|  9.8765e-06|    0.102738|
|        1750|  4.1963e+01|  4.1963e+01|   -8.009767|  9.9545e-06|    0.102743|
|        1760|  7.2512e+01|  7.2512e+01|   -7.992337|  1.0184e-05|    0.102756|
|        1770|  7.2512e+01|  7.2512e+01|   -7.971490|  1.0364e-05|    0.102773|
|        1780|  7.2512e+01|  7.2512e+01|   -7.951172|  1.0674e-05|    0.102794|
|        1790|  7.2512e+01|  7.2512e+01|   -7.935645|  1.0860e-05|    0.102813|
|        1800|  7.2512e+01|  7.2512e+01|   -7.927154|  1.0965e-05|    0.102830|
+-----------------------------------------------------------------------+
|        File Writing Summary       |              Filename             |
+-----------------------------------------------------------------------+
|SU2 binary restart                 |restart_flow_G5.dat                |
|Paraview                           |flow_G5.vtu                        |
|Paraview surface                   |surface_flow_G5.vtu                |
+-----------------------------------------------------------------------+
+-----------------------------------------------------------------------------+
|  Inner_Iter|     Min CFL|     Max CFL|      rms[P]|  Cauchy[CD]|          CD|
+-----------------------------------------------------------------------------+
|        1810|  7.2512e+01|  7.2512e+01|   -7.926604|  1.1405e-05|    0.102851|
|        1820|  7.2512e+01|  7.2512e+01|   -7.934932|  1.1920e-05|    0.102874|
|        1830|  7.2512e+01|  7.2512e+01|   -7.952352|  1.2193e-05|    0.102897|
|        1840|  7.2512e+01|  7.2512e+01|   -7.978193|  1.2464e-05|    0.102919|
|        1850|  1.8043e+01|  1.8043e+01|   -8.003057|  1.2426e-05|    0.102933|
|        1860|  9.3099e+00|  9.3099e+00|   -8.019010|  1.2479e-05|    0.102944|
|        1870|  5.7644e+01|  5.7644e+01|   -8.034443|  1.2352e-05|    0.102951|
|        1880|  6.9173e+01|  6.9173e+01|   -8.071789|  1.2871e-05|    0.102975|
|        1890|  6.9173e+01|  6.9173e+01|   -8.120804|  1.3429e-05|    0.102999|
|        1900|  2.4786e+01|  2.4786e+01|   -8.150563|  1.3492e-05|    0.103010|
|        1910|  1.2789e+01|  1.2789e+01|   -8.175859|  1.3584e-05|    0.103022|
|        1920|  6.5989e+01|  6.5989e+01|   -8.196613|  1.3756e-05|    0.103033|
|        1930|  6.5989e+01|  6.5989e+01|   -8.242851|  1.4429e-05|    0.103055|
|        1940|  6.5989e+01|  6.5989e+01|   -8.284792|  1.5186e-05|    0.103077|
|        1950|  6.5989e+01|  6.5989e+01|   -8.315751|  1.5727e-05|    0.103101|
|        1960|  1.3683e+01|  1.3683e+01|   -8.331972|  1.5823e-05|    0.103116|
|        1970|  7.0603e+00|  7.0603e+00|   -8.336689|  1.5555e-05|    0.103126|
|        1980|  4.3716e+01|  4.3716e+01|   -8.341245|  1.5387e-05|    0.103132|
|        1990|  6.2951e+01|  6.2951e+01|   -8.341618|  1.6024e-05|    0.103151|
|        2000|  6.2951e+01|  6.2951e+01|   -8.341128|  1.6620e-05|    0.103171|
+-----------------------------------------------------------------------+
|        File Writing Summary       |              Filename             |
+-----------------------------------------------------------------------+
|SU2 binary restart                 |restart_flow_G5.dat                |
|Paraview                           |flow_G5.vtu                        |
|Paraview surface                   |surface_flow_G5.vtu                |
+-----------------------------------------------------------------------+
+-----------------------------------------------------------------------------+
|  Inner_Iter|     Min CFL|     Max CFL|      rms[P]|  Cauchy[CD]|          CD|
+-----------------------------------------------------------------------------+
|        2010|  6.2951e+01|  6.2951e+01|   -8.337996|  1.6920e-05|    0.103192|
|        2020|  6.2951e+01|  6.2951e+01|   -8.336494|  1.7079e-05|    0.103213|
|        2030|  6.2951e+01|  6.2951e+01|   -8.338295|  1.6984e-05|    0.103232|
|        2040|  6.2951e+01|  6.2951e+01|   -8.343277|  1.6949e-05|    0.103250|
|        2050|  6.2951e+01|  6.2951e+01|   -8.352368|  1.7007e-05|    0.103268|
|        2060|  6.2951e+01|  6.2951e+01|   -8.366378|  1.6918e-05|    0.103287|
|        2070|  6.2951e+01|  6.2951e+01|   -8.384915|  1.6753e-05|    0.103306|
|        2080|  6.2951e+01|  6.2951e+01|   -8.407609|  1.6554e-05|    0.103323|
|        2090|  1.0878e+01|  1.0878e+01|   -8.432568|  1.6160e-05|    0.103336|
|        2100|  6.7353e+01|  6.7353e+01|   -8.443993|  1.5909e-05|    0.103343|
|        2110|  3.4753e+01|  3.4753e+01|   -8.457294|  1.5700e-05|    0.103349|
|        2120|  6.0053e+01|  6.0053e+01|   -8.482377|  1.5986e-05|    0.103363|
|        2130|  6.0053e+01|  6.0053e+01|   -8.519764|  1.5680e-05|    0.103379|
|        2140|  1.2453e+01|  1.2453e+01|   -8.552050|  1.5154e-05|    0.103390|
|        2150|  6.4252e+00|  6.4252e+00|   -8.569797|  1.5051e-05|    0.103398|
|        2160|  3.9783e+01|  3.9783e+01|   -8.586021|  1.4767e-05|    0.103403|
|        2170|  5.7288e+01|  5.7288e+01|   -8.619760|  1.4895e-05|    0.103417|
|        2180|  5.7288e+01|  5.7288e+01|   -8.659713|  1.4582e-05|    0.103431|
|        2190|  8.2495e+00|  8.2495e+00|   -8.695603|  1.4186e-05|    0.103443|
|        2200|  5.1079e+01|  5.1079e+01|   -8.708343|  1.3442e-05|    0.103448|
+-----------------------------------------------------------------------+
|        File Writing Summary       |              Filename             |
+-----------------------------------------------------------------------+
|SU2 binary restart                 |restart_flow_G5.dat                |
|Paraview                           |flow_G5.vtu                        |
|Paraview surface                   |surface_flow_G5.vtu                |
+-----------------------------------------------------------------------+
+-----------------------------------------------------------------------------+
|  Inner_Iter|     Min CFL|     Max CFL|      rms[P]|  Cauchy[CD]|          CD|
+-----------------------------------------------------------------------------+
|        2210|  2.6355e+01|  2.6355e+01|   -8.721477|  1.3077e-05|    0.103454|
|        2220|  5.4651e+01|  5.4651e+01|   -8.737624|  1.3138e-05|    0.103465|
|        2230|  5.4651e+01|  5.4651e+01|   -8.752877|  1.3431e-05|    0.103479|
|        2240|  5.4651e+01|  5.4651e+01|   -8.757876|  1.3200e-05|    0.103492|
|        2250|  5.4651e+01|  5.4651e+01|   -8.755724|  1.2962e-05|    0.103506|
|        2260|  5.4651e+01|  5.4651e+01|   -8.747425|  1.2665e-05|    0.103519|
|        2270|  5.4651e+01|  5.4651e+01|   -8.736127|  1.2343e-05|    0.103532|
|        2280|  5.4651e+01|  5.4651e+01|   -8.725068|  1.2109e-05|    0.103545|
|        2290|  5.4651e+01|  5.4651e+01|   -8.716403|  1.1909e-05|    0.103558|
|        2300|  5.4651e+01|  5.4651e+01|   -8.710844|  1.1687e-05|    0.103571|
|        2310|  2.8198e+01|  2.8198e+01|   -8.713577|  1.1115e-05|    0.103575|
|        2320|  1.4550e+01|  1.4550e+01|   -8.711334|  1.0619e-05|    0.103580|
|        2330|  5.2135e+01|  5.2135e+01|   -8.708308|  1.0239e-05|    0.103588|
|        2340|  5.2135e+01|  5.2135e+01|   -8.709258|  1.0237e-05|    0.103601|
|        2350|  5.2135e+01|  5.2135e+01|   -8.714041|  1.0448e-05|    0.103613|
|        2360|  5.2135e+01|  5.2135e+01|   -8.722178|  1.0711e-05|    0.103626|
|        2370|  5.2135e+01|  5.2135e+01|   -8.732924|  1.0633e-05|    0.103638|
|        2380|  1.5567e+01|  1.5567e+01|   -8.742420|  1.0255e-05|    0.103645|
|        2390|  8.0324e+00|  8.0324e+00|   -8.748251|  1.0081e-05|    0.103651|
|        2400|  4.9734e+01|  4.9734e+01|   -8.754150|  9.9437e-06|    0.103656|
+-----------------------------------------------------------------------+
|        File Writing Summary       |              Filename             |
+-----------------------------------------------------------------------+
|SU2 binary restart                 |restart_flow_G5.dat                |
|Paraview                           |flow_G5.vtu                        |
|Paraview surface                   |surface_flow_G5.vtu                |
+-----------------------------------------------------------------------+
+-----------------------------------------------------------------------------+
|  Inner_Iter|     Min CFL|     Max CFL|      rms[P]|  Cauchy[CD]|          CD|
+-----------------------------------------------------------------------------+
|        2410|  4.9734e+01|  4.9734e+01|   -8.764895|  1.0222e-05|    0.103667|
|        2420|  4.9734e+01|  4.9734e+01|   -8.780903|  1.0117e-05|    0.103679|
|        2430|  5.9681e+00|  5.9681e+00|   -8.797251|  9.9959e-06|    0.103690|
|        2440|  3.6953e+01|  3.6953e+01|   -8.805386|  9.6834e-06|    0.103694|
|        2450|  1.9067e+01|  1.9067e+01|   -8.812457|  9.6697e-06|    0.103698|
|        2460|  4.7445e+01|  4.7445e+01|   -8.821517|  9.8054e-06|    0.103708|
|        2470|  4.7445e+01|  4.7445e+01|   -8.837719|  9.7923e-06|    0.103719|
|        2480|  4.7445e+01|  4.7445e+01|   -8.854162|  9.7171e-06|    0.103730|
|        2490|  6.8320e+00|  6.8320e+00|   -8.869602|  9.5660e-06|    0.103740|
|        2500|  4.2302e+01|  4.2302e+01|   -8.876627|  9.1978e-06|    0.103744|
|        2510|  2.1827e+01|  2.1827e+01|   -8.882768|  8.8481e-06|    0.103748|
|        2520|  4.5260e+01|  4.5260e+01|   -8.890281|  8.7105e-06|    0.103757|
|        2530|  4.5260e+01|  4.5260e+01|   -8.902436|  8.6268e-06|    0.103768|
|        2540|  4.5260e+01|  4.5260e+01|   -8.913987|  8.5349e-06|    0.103779|
|        2550|  4.5260e+01|  4.5260e+01|   -8.924310|  8.4611e-06|    0.103790|
|        2560|  4.5260e+01|  4.5260e+01|   -8.933778|  8.7322e-06|    0.103801|
|        2570|  4.5260e+01|  4.5260e+01|   -8.941607|  8.9302e-06|    0.103812|
|        2580|  4.5260e+01|  4.5260e+01|   -8.948413|  9.0353e-06|    0.103823|
|        2590|  4.5260e+01|  4.5260e+01|   -8.955086|  8.9628e-06|    0.103833|
|        2600|  4.5260e+01|  4.5260e+01|   -8.961316|  8.9062e-06|    0.103844|
+-----------------------------------------------------------------------+
|        File Writing Summary       |              Filename             |
+-----------------------------------------------------------------------+
|SU2 binary restart                 |restart_flow_G5.dat                |
|Paraview                           |flow_G5.vtu                        |
|Paraview surface                   |surface_flow_G5.vtu                |
+-----------------------------------------------------------------------+
+-----------------------------------------------------------------------------+
|  Inner_Iter|     Min CFL|     Max CFL|      rms[P]|  Cauchy[CD]|          CD|
+-----------------------------------------------------------------------------+
|        2610|  4.5260e+01|  4.5260e+01|   -8.966646|  8.8391e-06|    0.103855|
|        2620|  4.5260e+01|  4.5260e+01|   -8.971542|  8.7607e-06|    0.103866|
|        2630|  4.5260e+01|  4.5260e+01|   -8.976922|  8.9275e-06|    0.103876|
|        2640|  4.5260e+01|  4.5260e+01|   -8.982987|  9.1005e-06|    0.103887|
|        2650|  4.5260e+01|  4.5260e+01|   -8.989342|  9.3278e-06|    0.103898|
|        2660|  4.5260e+00|  4.5260e+00|   -8.995889|  9.2833e-06|    0.103908|
|        2670|  2.8024e+01|  2.8024e+01|   -9.001961|  8.9375e-06|    0.103911|
|        2680|  1.4460e+01|  1.4460e+01|   -9.005172|  8.6971e-06|    0.103916|
|        2690|  4.3177e+01|  4.3177e+01|   -9.007452|  8.8316e-06|    0.103923|
|        2700|  4.3177e+01|  4.3177e+01|   -9.015625|  9.0286e-06|    0.103933|
|        2710|  4.3177e+01|  4.3177e+01|   -9.025104|  9.0592e-06|    0.103943|
|        2720|  4.3177e+01|  4.3177e+01|   -9.035066|  8.9947e-06|    0.103953|
|        2730|  4.3177e+01|  4.3177e+01|   -9.045334|  8.9445e-06|    0.103963|
|        2740|  4.3177e+01|  4.3177e+01|   -9.056159|  8.9685e-06|    0.103972|
|        2750|  4.3177e+01|  4.3177e+01|   -9.067187|  9.1853e-06|    0.103982|
|        2760|  5.1812e+00|  5.1812e+00|   -9.078412|  9.3631e-06|    0.103991|
|        2770|  3.2081e+01|  3.2081e+01|   -9.085480|  9.1248e-06|    0.103994|
|        2780|  1.6553e+01|  1.6553e+01|   -9.090492|  8.8576e-06|    0.103998|
|        2790|  4.1189e+01|  4.1189e+01|   -9.095115|  8.7210e-06|    0.104006|
|        2800|  4.1189e+01|  4.1189e+01|   -9.105078|  8.6523e-06|    0.104015|
+-----------------------------------------------------------------------+
|        File Writing Summary       |              Filename             |
+-----------------------------------------------------------------------+
|SU2 binary restart                 |restart_flow_G5.dat                |
|Paraview                           |flow_G5.vtu                        |
|Paraview surface                   |surface_flow_G5.vtu                |
+-----------------------------------------------------------------------+
+-----------------------------------------------------------------------------+
|  Inner_Iter|     Min CFL|     Max CFL|      rms[P]|  Cauchy[CD]|          CD|
+-----------------------------------------------------------------------------+
|        2810|  4.1189e+01|  4.1189e+01|   -9.114753|  8.5813e-06|    0.104024|
|        2820|  4.1189e+01|  4.1189e+01|   -9.123901|  8.5149e-06|    0.104033|
|        2830|  4.1189e+01|  4.1189e+01|   -9.132564|  8.4540e-06|    0.104042|
|        2840|  4.1189e+01|  4.1189e+01|   -9.140464|  8.3922e-06|    0.104051|
|        2850|  4.1189e+01|  4.1189e+01|   -9.146875|  8.3265e-06|    0.104060|
|        2860|  4.1189e+01|  4.1189e+01|   -9.151987|  8.2586e-06|    0.104069|
|        2870|  4.1189e+01|  4.1189e+01|   -9.156448|  8.1909e-06|    0.104078|
|        2880|  4.1189e+01|  4.1189e+01|   -9.160380|  8.1226e-06|    0.104087|
|        2890|  4.1189e+01|  4.1189e+01|   -9.163493|  8.0529e-06|    0.104096|
|        2900|  4.1189e+01|  4.1189e+01|   -9.165918|  7.9839e-06|    0.104105|
|        2910|  4.1189e+01|  4.1189e+01|   -9.167947|  7.9180e-06|    0.104114|
|        2920|  4.1189e+01|  4.1189e+01|   -9.169699|  8.1525e-06|    0.104123|
|        2930|  4.1189e+01|  4.1189e+01|   -9.171207|  8.3148e-06|    0.104132|
|        2940|  4.1189e+01|  4.1189e+01|   -9.172430|  8.3749e-06|    0.104141|
|        2950|  4.1189e+01|  4.1189e+01|   -9.173514|  8.3250e-06|    0.104149|
|        2960|  4.1189e+01|  4.1189e+01|   -9.174707|  8.2758e-06|    0.104158|
|        2970|  4.1189e+01|  4.1189e+01|   -9.176132|  8.2268e-06|    0.104167|
|        2980|  4.1189e+01|  4.1189e+01|   -9.177820|  8.1779e-06|    0.104175|
|        2990|  4.1189e+01|  4.1189e+01|   -9.179801|  8.1280e-06|    0.104184|
|        3000|  1.2299e+01|  1.2299e+01|   -9.183632|  7.9139e-06|    0.104188|
+-----------------------------------------------------------------------+
|        File Writing Summary       |              Filename             |
+-----------------------------------------------------------------------+
|SU2 binary restart                 |restart_flow_G5.dat                |
|Paraview                           |flow_G5.vtu                        |
|Paraview surface                   |surface_flow_G5.vtu                |
+-----------------------------------------------------------------------+
+-----------------------------------------------------------------------------+
|  Inner_Iter|     Min CFL|     Max CFL|      rms[P]|  Cauchy[CD]|          CD|
+-----------------------------------------------------------------------------+
|        3010|  6.3460e+00|  6.3460e+00|   -9.184963|  7.7434e-06|    0.104193|
|        3020|  3.9293e+01|  3.9293e+01|   -9.186832|  7.7574e-06|    0.104196|
|        3030|  3.9293e+01|  3.9293e+01|   -9.185772|  7.9140e-06|    0.104204|
|        3040|  3.9293e+01|  3.9293e+01|   -9.188410|  7.9475e-06|    0.104212|
|        3050|  3.9293e+01|  3.9293e+01|   -9.191331|  7.9039e-06|    0.104220|
|        3060|  3.9293e+01|  3.9293e+01|   -9.194334|  7.8628e-06|    0.104229|
|        3070|  3.9293e+01|  3.9293e+01|   -9.198175|  7.8208e-06|    0.104237|
|        3080|  3.9293e+01|  3.9293e+01|   -9.202302|  7.7777e-06|    0.104245|
|        3090|  3.9293e+01|  3.9293e+01|   -9.206336|  7.7334e-06|    0.104253|
|        3100|  3.9293e+01|  3.9293e+01|   -9.210569|  7.6888e-06|    0.104261|
|        3110|  3.9293e+01|  3.9293e+01|   -9.215065|  7.6465e-06|    0.104269|
|        3120|  3.9293e+01|  3.9293e+01|   -9.219722|  7.6053e-06|    0.104277|
|        3130|  3.9293e+01|  3.9293e+01|   -9.224438|  7.5643e-06|    0.104284|
|        3140|  3.9293e+01|  3.9293e+01|   -9.229253|  7.5231e-06|    0.104292|
|        3150|  3.9293e+01|  3.9293e+01|   -9.234229|  7.4813e-06|    0.104300|
|        3160|  3.9293e+01|  3.9293e+01|   -9.239347|  7.4392e-06|    0.104308|
|        3170|  3.9293e+01|  3.9293e+01|   -9.244591|  7.3971e-06|    0.104316|
|        3180|  3.9293e+01|  3.9293e+01|   -9.249848|  7.3549e-06|    0.104323|
|        3190|  3.9293e+01|  3.9293e+01|   -9.255017|  7.3126e-06|    0.104331|
|        3200|  3.9293e+01|  3.9293e+01|   -9.260120|  7.2704e-06|    0.104339|
+-----------------------------------------------------------------------+
|        File Writing Summary       |              Filename             |
+-----------------------------------------------------------------------+
|SU2 binary restart                 |restart_flow_G5.dat                |
|Paraview                           |flow_G5.vtu                        |
|Paraview surface                   |surface_flow_G5.vtu                |
+-----------------------------------------------------------------------+
+-----------------------------------------------------------------------------+
|  Inner_Iter|     Min CFL|     Max CFL|      rms[P]|  Cauchy[CD]|          CD|
+-----------------------------------------------------------------------------+
|        3210|  3.9293e+01|  3.9293e+01|   -9.265184|  7.2287e-06|    0.104346|
|        3220|  3.9293e+01|  3.9293e+01|   -9.270187|  7.1868e-06|    0.104354|
|        3230|  3.9293e+01|  3.9293e+01|   -9.275126|  7.1440e-06|    0.104362|
|        3240|  3.9293e+01|  3.9293e+01|   -9.280041|  7.1008e-06|    0.104369|
|        3250|  3.9293e+01|  3.9293e+01|   -9.284937|  7.2227e-06|    0.104377|
|        3260|  3.9293e+01|  3.9293e+01|   -9.289770|  7.3377e-06|    0.104384|
|        3270|  3.9293e+01|  3.9293e+01|   -9.294508|  7.4913e-06|    0.104391|
|        3280|  3.9293e+01|  3.9293e+01|   -9.299167|  7.4654e-06|    0.104399|
|        3290|  3.9293e+01|  3.9293e+01|   -9.303799|  7.4348e-06|    0.104406|
|        3300|  3.9293e+01|  3.9293e+01|   -9.308444|  7.4057e-06|    0.104414|
|        3310|  3.9293e+01|  3.9293e+01|   -9.313113|  7.3752e-06|    0.104421|
|        3320|  3.9293e+01|  3.9293e+01|   -9.317775|  7.3435e-06|    0.104428|
|        3330|  3.9293e+01|  3.9293e+01|   -9.322384|  7.3103e-06|    0.104435|
|        3340|  3.9293e+01|  3.9293e+01|   -9.326907|  7.2767e-06|    0.104443|
|        3350|  3.9293e+01|  3.9293e+01|   -9.331349|  7.2440e-06|    0.104450|
|        3360|  3.9293e+01|  3.9293e+01|   -9.335749|  7.2119e-06|    0.104457|
|        3370|  3.9293e+01|  3.9293e+01|   -9.340146|  7.1801e-06|    0.104464|
|        3380|  3.9293e+01|  3.9293e+01|   -9.344553|  7.1484e-06|    0.104471|
|        3390|  3.9293e+01|  3.9293e+01|   -9.348958|  7.1156e-06|    0.104478|
|        3400|  3.9293e+01|  3.9293e+01|   -9.353331|  7.0815e-06|    0.104485|
+-----------------------------------------------------------------------+
|        File Writing Summary       |              Filename             |
+-----------------------------------------------------------------------+
|SU2 binary restart                 |restart_flow_G5.dat                |
|Paraview                           |flow_G5.vtu                        |
|Paraview surface                   |surface_flow_G5.vtu                |
+-----------------------------------------------------------------------+
+-----------------------------------------------------------------------------+
|  Inner_Iter|     Min CFL|     Max CFL|      rms[P]|  Cauchy[CD]|          CD|
+-----------------------------------------------------------------------------+
|        3410|  3.9293e+01|  3.9293e+01|   -9.357648|  7.0469e-06|    0.104492|
|        3420|  3.9293e+01|  3.9293e+01|   -9.361895|  7.0122e-06|    0.104499|
|        3430|  3.9293e+01|  3.9293e+01|   -9.366072|  6.9775e-06|    0.104506|
|        3440|  3.9293e+01|  3.9293e+01|   -9.370184|  6.9431e-06|    0.104512|
|        3450|  3.9293e+00|  3.9293e+00|   -9.374240|  6.9093e-06|    0.104519|
|        3460|  2.4329e+01|  2.4329e+01|   -9.379084|  6.6852e-06|    0.104521|
|        3470|  1.2553e+01|  1.2553e+01|   -9.380949|  6.5079e-06|    0.104524|
|        3480|  3.7484e+01|  3.7484e+01|   -9.380981|  6.3955e-06|    0.104529|
|        3490|  3.7484e+01|  3.7484e+01|   -9.383864|  6.3489e-06|    0.104535|
|        3500|  3.7484e+01|  3.7484e+01|   -9.387672|  6.3043e-06|    0.104541|
|        3510|  3.7484e+01|  3.7484e+01|   -9.391354|  6.2593e-06|    0.104548|
|        3520|  3.7484e+01|  3.7484e+01|   -9.394924|  6.2151e-06|    0.104554|
|        3530|  3.7484e+01|  3.7484e+01|   -9.398729|  6.1711e-06|    0.104560|
|        3540|  3.7484e+01|  3.7484e+01|   -9.402416|  6.1278e-06|    0.104566|
|        3550|  3.7484e+01|  3.7484e+01|   -9.405762|  6.0845e-06|    0.104573|
|        3560|  3.7484e+01|  3.7484e+01|   -9.409066|  6.0408e-06|    0.104579|
|        3570|  3.7484e+01|  3.7484e+01|   -9.412512|  5.9969e-06|    0.104585|
|        3580|  3.7484e+01|  3.7484e+01|   -9.415987|  5.9527e-06|    0.104591|
|        3590|  3.7484e+01|  3.7484e+01|   -9.419314|  5.9084e-06|    0.104597|
|        3600|  3.7484e+01|  3.7484e+01|   -9.422531|  5.8647e-06|    0.104603|
+-----------------------------------------------------------------------+
|        File Writing Summary       |              Filename             |
+-----------------------------------------------------------------------+
|SU2 binary restart                 |restart_flow_G5.dat                |
|Paraview                           |flow_G5.vtu                        |
|Paraview surface                   |surface_flow_G5.vtu                |
+-----------------------------------------------------------------------+
+-----------------------------------------------------------------------------+
|  Inner_Iter|     Min CFL|     Max CFL|      rms[P]|  Cauchy[CD]|          CD|
+-----------------------------------------------------------------------------+
|        3610|  3.7484e+01|  3.7484e+01|   -9.425769|  5.8220e-06|    0.104609|
|        3620|  3.7484e+01|  3.7484e+01|   -9.429017|  5.7798e-06|    0.104615|
|        3630|  3.7484e+01|  3.7484e+01|   -9.432287|  5.7377e-06|    0.104621|
|        3640|  3.7484e+01|  3.7484e+01|   -9.435547|  5.6956e-06|    0.104627|
|        3650|  3.7484e+01|  3.7484e+01|   -9.438724|  5.6537e-06|    0.104633|
|        3660|  3.7484e+01|  3.7484e+01|   -9.441839|  5.6117e-06|    0.104638|
|        3670|  3.7484e+01|  3.7484e+01|   -9.444946|  5.5697e-06|    0.104644|
|        3680|  3.7484e+01|  3.7484e+01|   -9.448042|  5.5282e-06|    0.104650|
|        3690|  3.7484e+01|  3.7484e+01|   -9.451119|  5.4874e-06|    0.104656|
|        3700|  3.7484e+01|  3.7484e+01|   -9.454215|  5.4469e-06|    0.104662|
|        3710|  3.7484e+01|  3.7484e+01|   -9.457365|  5.5966e-06|    0.104667|
|        3720|  3.7484e+01|  3.7484e+01|   -9.460532|  5.6986e-06|    0.104673|
|        3730|  3.7484e+01|  3.7484e+01|   -9.463646|  5.7354e-06|    0.104679|
|        3740|  3.7484e+01|  3.7484e+01|   -9.466683|  5.7066e-06|    0.104684|
|        3750|  3.7484e+01|  3.7484e+01|   -9.469694|  5.6764e-06|    0.104690|
|        3760|  3.7484e+01|  3.7484e+01|   -9.472750|  5.6468e-06|    0.104695|
|        3770|  3.7484e+01|  3.7484e+01|   -9.475885|  5.6165e-06|    0.104701|
|        3780|  3.7484e+01|  3.7484e+01|   -9.479081|  5.5864e-06|    0.104706|
|        3790|  3.7484e+01|  3.7484e+01|   -9.482295|  5.5560e-06|    0.104712|
|        3800|  3.7484e+01|  3.7484e+01|   -9.485487|  5.5256e-06|    0.104717|
+-----------------------------------------------------------------------+
|        File Writing Summary       |              Filename             |
+-----------------------------------------------------------------------+
|SU2 binary restart                 |restart_flow_G5.dat                |
|Paraview                           |flow_G5.vtu                        |
|Paraview surface                   |surface_flow_G5.vtu                |
+-----------------------------------------------------------------------+
+-----------------------------------------------------------------------------+
|  Inner_Iter|     Min CFL|     Max CFL|      rms[P]|  Cauchy[CD]|          CD|
+-----------------------------------------------------------------------------+
|        3810|  3.7484e+01|  3.7484e+01|   -9.488639|  5.4958e-06|    0.104722|
|        3820|  3.7484e+01|  3.7484e+01|   -9.491759|  5.4663e-06|    0.104728|
|        3830|  3.7484e+01|  3.7484e+01|   -9.494875|  5.4377e-06|    0.104733|
|        3840|  3.7484e+01|  3.7484e+01|   -9.498008|  5.4095e-06|    0.104738|
|        3850|  3.7484e+01|  3.7484e+01|   -9.501169|  5.3811e-06|    0.104744|
|        3860|  3.7484e+01|  3.7484e+01|   -9.504359|  5.3520e-06|    0.104749|
|        3870|  3.7484e+01|  3.7484e+01|   -9.507573|  5.3228e-06|    0.104754|
|        3880|  3.7484e+01|  3.7484e+01|   -9.510803|  5.2939e-06|    0.104759|
|        3890|  3.7484e+01|  3.7484e+01|   -9.514035|  5.2654e-06|    0.104765|
|        3900|  3.7484e+01|  3.7484e+01|   -9.517262|  5.2370e-06|    0.104770|
|        3910|  3.7484e+01|  3.7484e+01|   -9.520476|  5.2090e-06|    0.104775|
|        3920|  3.7484e+01|  3.7484e+01|   -9.523677|  5.1814e-06|    0.104780|
|        3930|  3.7484e+01|  3.7484e+01|   -9.526871|  5.1537e-06|    0.104785|
|        3940|  3.7484e+01|  3.7484e+01|   -9.530066|  5.1257e-06|    0.104790|
|        3950|  3.7484e+01|  3.7484e+01|   -9.533272|  5.0977e-06|    0.104795|
|        3960|  3.7484e+01|  3.7484e+01|   -9.536490|  5.0701e-06|    0.104800|
|        3970|  3.7484e+01|  3.7484e+01|   -9.539717|  5.0428e-06|    0.104805|
|        3980|  3.7484e+01|  3.7484e+01|   -9.542948|  5.0156e-06|    0.104810|
|        3990|  3.7484e+01|  3.7484e+01|   -9.546175|  4.9884e-06|    0.104815|
|        4000|  3.7484e+01|  3.7484e+01|   -9.549397|  4.9613e-06|    0.104820|
+-----------------------------------------------------------------------+
|        File Writing Summary       |              Filename             |
+-----------------------------------------------------------------------+
|SU2 binary restart                 |restart_flow_G5.dat                |
|Paraview                           |flow_G5.vtu                        |
|Paraview surface                   |surface_flow_G5.vtu                |
+-----------------------------------------------------------------------+
+-----------------------------------------------------------------------------+
|  Inner_Iter|     Min CFL|     Max CFL|      rms[P]|  Cauchy[CD]|          CD|
+-----------------------------------------------------------------------------+
|        4010|  3.7484e+01|  3.7484e+01|   -9.552612|  4.9344e-06|    0.104824|
|        4020|  3.7484e+01|  3.7484e+01|   -9.555825|  4.9075e-06|    0.104829|
|        4030|  3.7484e+01|  3.7484e+01|   -9.559038|  4.8807e-06|    0.104834|
|        4040|  3.7484e+01|  3.7484e+01|   -9.562249|  4.8539e-06|    0.104839|
|        4050|  3.7484e+01|  3.7484e+01|   -9.565456|  4.8272e-06|    0.104844|
|        4060|  3.7484e+01|  3.7484e+01|   -9.568657|  4.8007e-06|    0.104848|
|        4070|  3.7484e+01|  3.7484e+01|   -9.571855|  4.7744e-06|    0.104853|
|        4080|  3.7484e+01|  3.7484e+01|   -9.575053|  4.7481e-06|    0.104858|
|        4090|  3.7484e+01|  3.7484e+01|   -9.578252|  4.7219e-06|    0.104862|
|        4100|  3.7484e+01|  3.7484e+01|   -9.581453|  4.6958e-06|    0.104867|
|        4110|  3.7484e+01|  3.7484e+01|   -9.584652|  4.6699e-06|    0.104871|
|        4120|  3.7484e+01|  3.7484e+01|   -9.587845|  4.6440e-06|    0.104876|
|        4130|  3.7484e+01|  3.7484e+01|   -9.591030|  4.6183e-06|    0.104880|
|        4140|  3.7484e+01|  3.7484e+01|   -9.594203|  4.5926e-06|    0.104885|
|        4150|  3.7484e+01|  3.7484e+01|   -9.597366|  4.5670e-06|    0.104889|
|        4160|  3.7484e+01|  3.7484e+01|   -9.600520|  4.5416e-06|    0.104894|
|        4170|  3.7484e+01|  3.7484e+01|   -9.603665|  4.5164e-06|    0.104898|
|        4180|  3.7484e+01|  3.7484e+01|   -9.606802|  4.4912e-06|    0.104903|
|        4190|  3.7484e+01|  3.7484e+01|   -9.609929|  4.4661e-06|    0.104907|
|        4200|  3.7484e+01|  3.7484e+01|   -9.613042|  4.4411e-06|    0.104911|
+-----------------------------------------------------------------------+
|        File Writing Summary       |              Filename             |
+-----------------------------------------------------------------------+
|SU2 binary restart                 |restart_flow_G5.dat                |
|Paraview                           |flow_G5.vtu                        |
|Paraview surface                   |surface_flow_G5.vtu                |
+-----------------------------------------------------------------------+
+-----------------------------------------------------------------------------+
|  Inner_Iter|     Min CFL|     Max CFL|      rms[P]|  Cauchy[CD]|          CD|
+-----------------------------------------------------------------------------+
|        4210|  3.7484e+01|  3.7484e+01|   -9.616139|  4.4162e-06|    0.104916|
|        4220|  3.7484e+01|  3.7484e+01|   -9.619220|  4.3913e-06|    0.104920|
|        4230|  3.7484e+01|  3.7484e+01|   -9.622285|  4.3666e-06|    0.104924|
|        4240|  3.7484e+01|  3.7484e+01|   -9.625333|  4.3420e-06|    0.104929|
|        4250|  3.7484e+01|  3.7484e+01|   -9.628367|  4.3174e-06|    0.104933|
|        4260|  3.7484e+01|  3.7484e+01|   -9.631384|  4.2930e-06|    0.104937|
|        4270|  3.7484e+01|  3.7484e+01|   -9.634385|  4.2687e-06|    0.104941|
|        4280|  3.7484e+01|  3.7484e+01|   -9.637370|  4.2445e-06|    0.104945|
|        4290|  3.7484e+01|  3.7484e+01|   -9.640340|  4.2204e-06|    0.104949|
|        4300|  3.7484e+01|  3.7484e+01|   -9.643295|  4.1964e-06|    0.104954|
|        4310|  3.7484e+01|  3.7484e+01|   -9.646236|  4.1724e-06|    0.104958|
|        4320|  3.7484e+01|  3.7484e+01|   -9.649164|  4.1486e-06|    0.104962|
|        4330|  3.7484e+01|  3.7484e+01|   -9.652080|  4.1249e-06|    0.104966|
|        4340|  3.7484e+01|  3.7484e+01|   -9.654983|  4.1012e-06|    0.104970|
|        4350|  3.7484e+01|  3.7484e+01|   -9.657876|  4.0777e-06|    0.104974|
|        4360|  3.7484e+01|  3.7484e+01|   -9.660759|  4.0542e-06|    0.104978|
|        4370|  3.7484e+01|  3.7484e+01|   -9.663634|  4.0309e-06|    0.104982|
|        4380|  3.7484e+01|  3.7484e+01|   -9.666503|  4.0077e-06|    0.104986|
|        4390|  3.7484e+01|  3.7484e+01|   -9.669366|  3.9846e-06|    0.104989|
|        4400|  3.7484e+01|  3.7484e+01|   -9.672224|  3.9615e-06|    0.104993|
+-----------------------------------------------------------------------+
|        File Writing Summary       |              Filename             |
+-----------------------------------------------------------------------+
|SU2 binary restart                 |restart_flow_G5.dat                |
|Paraview                           |flow_G5.vtu                        |
|Paraview surface                   |surface_flow_G5.vtu                |
+-----------------------------------------------------------------------+
+-----------------------------------------------------------------------------+
|  Inner_Iter|     Min CFL|     Max CFL|      rms[P]|  Cauchy[CD]|          CD|
+-----------------------------------------------------------------------------+
|        4410|  3.7484e+01|  3.7484e+01|   -9.675077|  3.9386e-06|    0.104997|
|        4420|  3.7484e+01|  3.7484e+01|   -9.677927|  3.9158e-06|    0.105001|
|        4430|  3.7484e+01|  3.7484e+01|   -9.680772|  3.8931e-06|    0.105005|
|        4440|  3.7484e+01|  3.7484e+01|   -9.683615|  3.8706e-06|    0.105009|
|        4450|  3.7484e+01|  3.7484e+01|   -9.686456|  3.8481e-06|    0.105012|
|        4460|  3.7484e+01|  3.7484e+01|   -9.689295|  3.8257e-06|    0.105016|
|        4470|  3.7484e+01|  3.7484e+01|   -9.692134|  3.8034e-06|    0.105020|
|        4480|  3.7484e+01|  3.7484e+01|   -9.694972|  3.7813e-06|    0.105024|
|        4490|  3.7484e+01|  3.7484e+01|   -9.697809|  3.7593e-06|    0.105027|
|        4500|  3.7484e+01|  3.7484e+01|   -9.700646|  3.7374e-06|    0.105031|
|        4510|  3.7484e+01|  3.7484e+01|   -9.703483|  3.7157e-06|    0.105035|
|        4520|  3.7484e+01|  3.7484e+01|   -9.706319|  3.6941e-06|    0.105038|
|        4530|  3.7484e+01|  3.7484e+01|   -9.709156|  3.6727e-06|    0.105042|
|        4540|  3.7484e+01|  3.7484e+01|   -9.711993|  3.6513e-06|    0.105045|
|        4550|  3.7484e+01|  3.7484e+01|   -9.714830|  3.6301e-06|    0.105049|
|        4560|  3.7484e+01|  3.7484e+01|   -9.717667|  3.6090e-06|    0.105052|
|        4570|  3.7484e+01|  3.7484e+01|   -9.720504|  3.5880e-06|    0.105056|
|        4580|  3.7484e+01|  3.7484e+01|   -9.723341|  3.5672e-06|    0.105059|
|        4590|  3.7484e+01|  3.7484e+01|   -9.726177|  3.5465e-06|    0.105063|
|        4600|  3.7484e+01|  3.7484e+01|   -9.729014|  3.5259e-06|    0.105066|
+-----------------------------------------------------------------------+
|        File Writing Summary       |              Filename             |
+-----------------------------------------------------------------------+
|SU2 binary restart                 |restart_flow_G5.dat                |
|Paraview                           |flow_G5.vtu                        |
|Paraview surface                   |surface_flow_G5.vtu                |
+-----------------------------------------------------------------------+
+-----------------------------------------------------------------------------+
|  Inner_Iter|     Min CFL|     Max CFL|      rms[P]|  Cauchy[CD]|          CD|
+-----------------------------------------------------------------------------+
|        4610|  3.7484e+01|  3.7484e+01|   -9.731852|  3.5054e-06|    0.105070|
|        4620|  3.7484e+01|  3.7484e+01|   -9.734690|  3.4850e-06|    0.105073|
|        4630|  3.7484e+01|  3.7484e+01|   -9.737528|  3.4648e-06|    0.105077|
|        4640|  3.7484e+01|  3.7484e+01|   -9.740367|  3.4447e-06|    0.105080|
|        4650|  3.7484e+01|  3.7484e+01|   -9.743205|  3.4247e-06|    0.105083|
|        4660|  3.7484e+01|  3.7484e+01|   -9.746042|  3.4049e-06|    0.105087|
|        4670|  3.7484e+01|  3.7484e+01|   -9.748877|  3.3851e-06|    0.105090|
|        4680|  3.7484e+01|  3.7484e+01|   -9.751708|  3.3655e-06|    0.105093|
|        4690|  3.7484e+01|  3.7484e+01|   -9.754537|  3.3460e-06|    0.105097|
|        4700|  3.7484e+01|  3.7484e+01|   -9.757364|  3.3266e-06|    0.105100|
|        4710|  3.7484e+01|  3.7484e+01|   -9.760189|  3.3074e-06|    0.105103|
|        4720|  3.7484e+01|  3.7484e+01|   -9.763012|  3.2882e-06|    0.105106|
|        4730|  3.7484e+01|  3.7484e+01|   -9.765834|  3.2692e-06|    0.105109|
|        4740|  3.7484e+01|  3.7484e+01|   -9.768655|  3.2503e-06|    0.105113|
|        4750|  3.7484e+01|  3.7484e+01|   -9.771473|  3.2315e-06|    0.105116|
|        4760|  3.7484e+01|  3.7484e+01|   -9.774288|  3.2127e-06|    0.105119|
|        4770|  3.7484e+01|  3.7484e+01|   -9.777099|  3.1941e-06|    0.105122|
|        4780|  3.7484e+01|  3.7484e+01|   -9.779906|  3.1756e-06|    0.105125|
|        4790|  3.7484e+01|  3.7484e+01|   -9.782707|  3.1572e-06|    0.105128|
|        4800|  3.7484e+01|  3.7484e+01|   -9.785502|  3.1389e-06|    0.105131|
+-----------------------------------------------------------------------+
|        File Writing Summary       |              Filename             |
+-----------------------------------------------------------------------+
|SU2 binary restart                 |restart_flow_G5.dat                |
|Paraview                           |flow_G5.vtu                        |
|Paraview surface                   |surface_flow_G5.vtu                |
+-----------------------------------------------------------------------+
+-----------------------------------------------------------------------------+
|  Inner_Iter|     Min CFL|     Max CFL|      rms[P]|  Cauchy[CD]|          CD|
+-----------------------------------------------------------------------------+
|        4810|  3.7484e+01|  3.7484e+01|   -9.788292|  3.1207e-06|    0.105134|
|        4820|  3.7484e+01|  3.7484e+01|   -9.791076|  3.1027e-06|    0.105137|
|        4830|  3.7484e+01|  3.7484e+01|   -9.793856|  3.0847e-06|    0.105140|
|        4840|  3.7484e+01|  3.7484e+01|   -9.796633|  3.0668e-06|    0.105143|
|        4850|  3.7484e+01|  3.7484e+01|   -9.799407|  3.0490e-06|    0.105146|
|        4860|  3.7484e+01|  3.7484e+01|   -9.802178|  3.0314e-06|    0.105149|
|        4870|  3.7484e+01|  3.7484e+01|   -9.804944|  3.0138e-06|    0.105152|
|        4880|  3.7484e+01|  3.7484e+01|   -9.807707|  2.9963e-06|    0.105155|
|        4890|  3.7484e+01|  3.7484e+01|   -9.810465|  2.9789e-06|    0.105158|
|        4900|  3.7484e+01|  3.7484e+01|   -9.813220|  2.9616e-06|    0.105161|
|        4910|  3.7484e+01|  3.7484e+01|   -9.815972|  2.9444e-06|    0.105164|
|        4920|  3.7484e+01|  3.7484e+01|   -9.818718|  2.9274e-06|    0.105167|
|        4930|  3.7484e+01|  3.7484e+01|   -9.821461|  2.9104e-06|    0.105170|
|        4940|  3.7484e+01|  3.7484e+01|   -9.824202|  2.8935e-06|    0.105173|
|        4950|  3.7484e+01|  3.7484e+01|   -9.826940|  2.8768e-06|    0.105175|
|        4960|  3.7484e+01|  3.7484e+01|   -9.829677|  2.8601e-06|    0.105178|
|        4970|  3.7484e+01|  3.7484e+01|   -9.832411|  2.8436e-06|    0.105181|
|        4980|  3.7484e+01|  3.7484e+01|   -9.835143|  2.8271e-06|    0.105184|
|        4990|  3.7484e+01|  3.7484e+01|   -9.837873|  2.8108e-06|    0.105186|
|        5000|  3.7484e+01|  3.7484e+01|   -9.840603|  2.7945e-06|    0.105189|
+-----------------------------------------------------------------------+
|        File Writing Summary       |              Filename             |
+-----------------------------------------------------------------------+
|SU2 binary restart                 |restart_flow_G5.dat                |
|Paraview                           |flow_G5.vtu                        |
|Paraview surface                   |surface_flow_G5.vtu                |
+-----------------------------------------------------------------------+
+-----------------------------------------------------------------------------+
|  Inner_Iter|     Min CFL|     Max CFL|      rms[P]|  Cauchy[CD]|          CD|
+-----------------------------------------------------------------------------+
|        5010|  3.7484e+01|  3.7484e+01|   -9.843331|  2.7784e-06|    0.105192|
|        5020|  3.7484e+01|  3.7484e+01|   -9.846059|  2.7623e-06|    0.105195|
|        5030|  3.7484e+01|  3.7484e+01|   -9.848786|  2.7463e-06|    0.105197|
|        5040|  3.7484e+01|  3.7484e+01|   -9.851512|  2.7305e-06|    0.105200|
|        5050|  3.7484e+01|  3.7484e+01|   -9.854238|  2.7147e-06|    0.105203|
|        5060|  3.7484e+01|  3.7484e+01|   -9.856963|  2.6990e-06|    0.105205|
|        5070|  3.7484e+01|  3.7484e+01|   -9.859688|  2.6835e-06|    0.105208|
|        5080|  3.7484e+01|  3.7484e+01|   -9.862413|  2.6680e-06|    0.105211|
|        5090|  3.7484e+01|  3.7484e+01|   -9.865138|  2.6526e-06|    0.105213|
|        5100|  3.7484e+01|  3.7484e+01|   -9.867862|  2.6373e-06|    0.105216|
|        5110|  3.7484e+01|  3.7484e+01|   -9.870586|  2.6221e-06|    0.105218|
|        5120|  3.7484e+01|  3.7484e+01|   -9.873310|  2.6070e-06|    0.105221|
|        5130|  3.7484e+01|  3.7484e+01|   -9.876033|  2.5920e-06|    0.105223|
|        5140|  3.7484e+01|  3.7484e+01|   -9.878754|  2.5770e-06|    0.105226|
|        5150|  3.7484e+01|  3.7484e+01|   -9.881474|  2.5622e-06|    0.105228|
|        5160|  3.7484e+01|  3.7484e+01|   -9.884194|  2.5474e-06|    0.105231|
|        5170|  3.7484e+01|  3.7484e+01|   -9.886914|  2.5327e-06|    0.105233|
|        5180|  3.7484e+01|  3.7484e+01|   -9.889634|  2.5181e-06|    0.105236|
|        5190|  3.7484e+01|  3.7484e+01|   -9.892355|  2.5036e-06|    0.105238|
|        5200|  3.7484e+01|  3.7484e+01|   -9.895076|  2.4891e-06|    0.105241|
+-----------------------------------------------------------------------+
|        File Writing Summary       |              Filename             |
+-----------------------------------------------------------------------+
|SU2 binary restart                 |restart_flow_G5.dat                |
|Paraview                           |flow_G5.vtu                        |
|Paraview surface                   |surface_flow_G5.vtu                |
+-----------------------------------------------------------------------+
+-----------------------------------------------------------------------------+
|  Inner_Iter|     Min CFL|     Max CFL|      rms[P]|  Cauchy[CD]|          CD|
+-----------------------------------------------------------------------------+
|        5210|  3.7484e+01|  3.7484e+01|   -9.897797|  2.4748e-06|    0.105243|
|        5220|  3.7484e+01|  3.7484e+01|   -9.900517|  2.4605e-06|    0.105246|
|        5230|  3.7484e+01|  3.7484e+01|   -9.903236|  2.4462e-06|    0.105248|
|        5240|  3.7484e+01|  3.7484e+01|   -9.905952|  2.4321e-06|    0.105250|
|        5250|  3.7484e+01|  3.7484e+01|   -9.908667|  2.4181e-06|    0.105253|
|        5260|  3.7484e+01|  3.7484e+01|   -9.911381|  2.4041e-06|    0.105255|
|        5270|  3.7484e+01|  3.7484e+01|   -9.914093|  2.3902e-06|    0.105258|
|        5280|  3.7484e+01|  3.7484e+01|   -9.916804|  2.3763e-06|    0.105260|
|        5290|  3.7484e+01|  3.7484e+01|   -9.919514|  2.3626e-06|    0.105262|
|        5300|  3.7484e+01|  3.7484e+01|   -9.922224|  2.3489e-06|    0.105264|
|        5310|  3.7484e+01|  3.7484e+01|   -9.924933|  2.3352e-06|    0.105267|
|        5320|  3.7484e+01|  3.7484e+01|   -9.927640|  2.3217e-06|    0.105269|
|        5330|  3.7484e+01|  3.7484e+01|   -9.930345|  2.3082e-06|    0.105271|
|        5340|  3.7484e+01|  3.7484e+01|   -9.933049|  2.2947e-06|    0.105274|
|        5350|  3.7484e+01|  3.7484e+01|   -9.935751|  2.2814e-06|    0.105276|
|        5360|  3.7484e+01|  3.7484e+01|   -9.938450|  2.2681e-06|    0.105278|
|        5370|  3.7484e+01|  3.7484e+01|   -9.941147|  2.2549e-06|    0.105280|
|        5380|  3.7484e+01|  3.7484e+01|   -9.943842|  2.2417e-06|    0.105282|
|        5390|  3.7484e+01|  3.7484e+01|   -9.946535|  2.2286e-06|    0.105285|
|        5400|  3.7484e+01|  3.7484e+01|   -9.949227|  2.2155e-06|    0.105287|
+-----------------------------------------------------------------------+
|        File Writing Summary       |              Filename             |
+-----------------------------------------------------------------------+
|SU2 binary restart                 |restart_flow_G5.dat                |
|Paraview                           |flow_G5.vtu                        |
|Paraview surface                   |surface_flow_G5.vtu                |
+-----------------------------------------------------------------------+
+-----------------------------------------------------------------------------+
|  Inner_Iter|     Min CFL|     Max CFL|      rms[P]|  Cauchy[CD]|          CD|
+-----------------------------------------------------------------------------+
|        5410|  3.7484e+01|  3.7484e+01|   -9.951918|  2.2026e-06|    0.105289|
|        5420|  3.7484e+01|  3.7484e+01|   -9.954607|  2.1897e-06|    0.105291|
|        5430|  3.7484e+01|  3.7484e+01|   -9.957295|  2.1769e-06|    0.105293|
|        5440|  3.7484e+01|  3.7484e+01|   -9.959981|  2.1641e-06|    0.105295|
|        5450|  3.7484e+01|  3.7484e+01|   -9.962663|  2.1514e-06|    0.105297|
|        5460|  3.7484e+01|  3.7484e+01|   -9.965344|  2.1388e-06|    0.105300|
|        5470|  3.7484e+01|  3.7484e+01|   -9.968022|  2.1262e-06|    0.105302|
|        5480|  3.7484e+01|  3.7484e+01|   -9.970697|  2.1138e-06|    0.105304|
|        5490|  3.7484e+01|  3.7484e+01|   -9.973371|  2.1014e-06|    0.105306|
|        5500|  3.7484e+01|  3.7484e+01|   -9.976044|  2.0890e-06|    0.105308|
|        5510|  3.7484e+01|  3.7484e+01|   -9.978714|  2.0767e-06|    0.105310|
|        5520|  3.7484e+01|  3.7484e+01|   -9.981384|  2.0645e-06|    0.105312|
|        5530|  3.7484e+01|  3.7484e+01|   -9.984052|  2.0524e-06|    0.105314|
|        5540|  3.7484e+01|  3.7484e+01|   -9.986718|  2.0403e-06|    0.105316|
|        5550|  3.7484e+01|  3.7484e+01|   -9.989384|  2.0283e-06|    0.105318|
|        5560|  3.7484e+01|  3.7484e+01|   -9.992047|  2.0164e-06|    0.105320|
|        5570|  3.7484e+01|  3.7484e+01|   -9.994709|  2.0046e-06|    0.105322|
|        5580|  3.7484e+01|  3.7484e+01|   -9.997368|  1.9928e-06|    0.105324|
|        5590|  3.7484e+01|  3.7484e+01|  -10.000025|  1.9811e-06|    0.105326|
|        5600|  3.7484e+01|  3.7484e+01|  -10.002679|  1.9694e-06|    0.105328|
+-----------------------------------------------------------------------+
|        File Writing Summary       |              Filename             |
+-----------------------------------------------------------------------+
|SU2 binary restart                 |restart_flow_G5.dat                |
|Paraview                           |flow_G5.vtu                        |
|Paraview surface                   |surface_flow_G5.vtu                |
+-----------------------------------------------------------------------+
+-----------------------------------------------------------------------------+
|  Inner_Iter|     Min CFL|     Max CFL|      rms[P]|  Cauchy[CD]|          CD|
+-----------------------------------------------------------------------------+
|        5610|  3.7484e+01|  3.7484e+01|  -10.005331|  1.9579e-06|    0.105330|
|        5620|  3.7484e+01|  3.7484e+01|  -10.007982|  1.9464e-06|    0.105331|
|        5630|  3.7484e+01|  3.7484e+01|  -10.010630|  1.9350e-06|    0.105333|
|        5640|  3.7484e+01|  3.7484e+01|  -10.013278|  1.9236e-06|    0.105335|
|        5650|  3.7484e+01|  3.7484e+01|  -10.015923|  1.9123e-06|    0.105337|
|        5660|  3.7484e+01|  3.7484e+01|  -10.018567|  1.9011e-06|    0.105339|
|        5670|  3.7484e+01|  3.7484e+01|  -10.021209|  1.8899e-06|    0.105341|
|        5680|  3.7484e+01|  3.7484e+01|  -10.023850|  1.8789e-06|    0.105343|
|        5690|  3.7484e+01|  3.7484e+01|  -10.026488|  1.8678e-06|    0.105345|
|        5700|  3.7484e+01|  3.7484e+01|  -10.029124|  1.8569e-06|    0.105346|
|        5710|  3.7484e+01|  3.7484e+01|  -10.031758|  1.8460e-06|    0.105348|
|        5720|  3.7484e+01|  3.7484e+01|  -10.034390|  1.8351e-06|    0.105350|
|        5730|  3.7484e+01|  3.7484e+01|  -10.037019|  1.8244e-06|    0.105352|
|        5740|  3.7484e+01|  3.7484e+01|  -10.039646|  1.8137e-06|    0.105354|
|        5750|  3.7484e+01|  3.7484e+01|  -10.042272|  1.8030e-06|    0.105355|
|        5760|  3.7484e+01|  3.7484e+01|  -10.044896|  1.7925e-06|    0.105357|
|        5770|  3.7484e+01|  3.7484e+01|  -10.047518|  1.7820e-06|    0.105359|
|        5780|  3.7484e+01|  3.7484e+01|  -10.050139|  1.7715e-06|    0.105361|
|        5790|  3.7484e+01|  3.7484e+01|  -10.052758|  1.7611e-06|    0.105362|
|        5800|  3.7484e+01|  3.7484e+01|  -10.055376|  1.7508e-06|    0.105364|
+-----------------------------------------------------------------------+
|        File Writing Summary       |              Filename             |
+-----------------------------------------------------------------------+
|SU2 binary restart                 |restart_flow_G5.dat                |
|Paraview                           |flow_G5.vtu                        |
|Paraview surface                   |surface_flow_G5.vtu                |
+-----------------------------------------------------------------------+
+-----------------------------------------------------------------------------+
|  Inner_Iter|     Min CFL|     Max CFL|      rms[P]|  Cauchy[CD]|          CD|
+-----------------------------------------------------------------------------+
|        5810|  3.7484e+01|  3.7484e+01|  -10.057993|  1.7405e-06|    0.105366|
|        5820|  3.7484e+01|  3.7484e+01|  -10.060608|  1.7303e-06|    0.105367|
|        5830|  3.7484e+01|  3.7484e+01|  -10.063221|  1.7202e-06|    0.105369|
|        5840|  3.7484e+01|  3.7484e+01|  -10.065832|  1.7101e-06|    0.105371|
|        5850|  3.7484e+01|  3.7484e+01|  -10.068443|  1.7001e-06|    0.105372|
|        5860|  3.7484e+01|  3.7484e+01|  -10.071052|  1.6901e-06|    0.105374|
|        5870|  3.7484e+01|  3.7484e+01|  -10.073661|  1.6802e-06|    0.105376|
|        5880|  3.7484e+01|  3.7484e+01|  -10.076268|  1.6704e-06|    0.105377|
|        5890|  3.7484e+01|  3.7484e+01|  -10.078875|  1.6606e-06|    0.105379|
|        5900|  3.7484e+01|  3.7484e+01|  -10.081481|  1.6509e-06|    0.105381|
|        5910|  3.7484e+01|  3.7484e+01|  -10.084087|  1.6412e-06|    0.105382|
|        5920|  3.7484e+01|  3.7484e+01|  -10.086692|  1.6316e-06|    0.105384|
|        5930|  3.7484e+01|  3.7484e+01|  -10.089297|  1.6221e-06|    0.105385|
|        5940|  3.7484e+01|  3.7484e+01|  -10.091902|  1.6126e-06|    0.105387|
|        5950|  3.7484e+01|  3.7484e+01|  -10.094506|  1.6031e-06|    0.105389|
|        5960|  3.7484e+01|  3.7484e+01|  -10.097110|  1.5938e-06|    0.105390|
|        5970|  3.7484e+01|  3.7484e+01|  -10.099713|  1.5844e-06|    0.105392|
|        5980|  3.7484e+01|  3.7484e+01|  -10.102317|  1.5752e-06|    0.105393|
|        5990|  3.7484e+01|  3.7484e+01|  -10.104920|  1.5660e-06|    0.105395|
|        6000|  3.7484e+01|  3.7484e+01|  -10.107524|  1.5568e-06|    0.105396|
+-----------------------------------------------------------------------+
|        File Writing Summary       |              Filename             |
+-----------------------------------------------------------------------+
|SU2 binary restart                 |restart_flow_G5.dat                |
|Paraview                           |flow_G5.vtu                        |
|Paraview surface                   |surface_flow_G5.vtu                |
+-----------------------------------------------------------------------+
+-----------------------------------------------------------------------------+
|  Inner_Iter|     Min CFL|     Max CFL|      rms[P]|  Cauchy[CD]|          CD|
+-----------------------------------------------------------------------------+
|        6010|  3.7484e+01|  3.7484e+01|  -10.110128|  1.5477e-06|    0.105398|
|        6020|  3.7484e+01|  3.7484e+01|  -10.112732|  1.5387e-06|    0.105399|
|        6030|  3.7484e+01|  3.7484e+01|  -10.115337|  1.5297e-06|    0.105401|
|        6040|  3.7484e+01|  3.7484e+01|  -10.117942|  1.5208e-06|    0.105402|
|        6050|  3.7484e+01|  3.7484e+01|  -10.120546|  1.5119e-06|    0.105404|
|        6060|  3.7484e+01|  3.7484e+01|  -10.123152|  1.5031e-06|    0.105405|
|        6070|  3.7484e+01|  3.7484e+01|  -10.125757|  1.4943e-06|    0.105407|
|        6080|  3.7484e+01|  3.7484e+01|  -10.128362|  1.4856e-06|    0.105408|
|        6090|  3.7484e+01|  3.7484e+01|  -10.130968|  1.4769e-06|    0.105410|
|        6100|  3.7484e+01|  3.7484e+01|  -10.133574|  1.4683e-06|    0.105411|
|        6110|  3.7484e+01|  3.7484e+01|  -10.136180|  1.4598e-06|    0.105413|
|        6120|  3.7484e+01|  3.7484e+01|  -10.138787|  1.4513e-06|    0.105414|
|        6130|  3.7484e+01|  3.7484e+01|  -10.141393|  1.4428e-06|    0.105415|
|        6140|  3.7484e+01|  3.7484e+01|  -10.144000|  1.4344e-06|    0.105417|
|        6150|  3.7484e+01|  3.7484e+01|  -10.146606|  1.4260e-06|    0.105418|
|        6160|  3.7484e+01|  3.7484e+01|  -10.149213|  1.4177e-06|    0.105420|
|        6170|  3.7484e+01|  3.7484e+01|  -10.151819|  1.4094e-06|    0.105421|
|        6180|  3.7484e+01|  3.7484e+01|  -10.154425|  1.4012e-06|    0.105422|
|        6190|  3.7484e+01|  3.7484e+01|  -10.157031|  1.3930e-06|    0.105424|
|        6200|  3.7484e+01|  3.7484e+01|  -10.159637|  1.3849e-06|    0.105425|
+-----------------------------------------------------------------------+
|        File Writing Summary       |              Filename             |
+-----------------------------------------------------------------------+
|SU2 binary restart                 |restart_flow_G5.dat                |
|Paraview                           |flow_G5.vtu                        |
|Paraview surface                   |surface_flow_G5.vtu                |
+-----------------------------------------------------------------------+
+-----------------------------------------------------------------------------+
|  Inner_Iter|     Min CFL|     Max CFL|      rms[P]|  Cauchy[CD]|          CD|
+-----------------------------------------------------------------------------+
|        6210|  3.7484e+01|  3.7484e+01|  -10.162243|  1.3768e-06|    0.105426|
|        6220|  3.7484e+01|  3.7484e+01|  -10.164849|  1.3688e-06|    0.105428|
|        6230|  3.7484e+01|  3.7484e+01|  -10.167454|  1.3608e-06|    0.105429|
|        6240|  3.7484e+01|  3.7484e+01|  -10.170058|  1.3529e-06|    0.105430|
|        6250|  3.7484e+01|  3.7484e+01|  -10.172660|  1.3450e-06|    0.105432|
|        6260|  3.7484e+01|  3.7484e+01|  -10.175262|  1.3372e-06|    0.105433|
|        6270|  3.7484e+01|  3.7484e+01|  -10.177864|  1.3294e-06|    0.105434|
|        6280|  3.7484e+01|  3.7484e+01|  -10.180466|  1.3216e-06|    0.105436|
|        6290|  3.7484e+01|  3.7484e+01|  -10.183070|  1.3139e-06|    0.105437|
|        6300|  3.7484e+01|  3.7484e+01|  -10.185675|  1.3063e-06|    0.105438|
|        6310|  3.7484e+01|  3.7484e+01|  -10.188279|  1.2987e-06|    0.105440|
|        6320|  3.7484e+01|  3.7484e+01|  -10.190882|  1.2911e-06|    0.105441|
|        6330|  3.7484e+01|  3.7484e+01|  -10.193483|  1.2836e-06|    0.105442|
|        6340|  3.7484e+01|  3.7484e+01|  -10.196082|  1.2761e-06|    0.105443|
|        6350|  3.7484e+01|  3.7484e+01|  -10.198678|  1.2686e-06|    0.105445|
|        6360|  3.7484e+01|  3.7484e+01|  -10.201274|  1.2612e-06|    0.105446|
|        6370|  3.7484e+01|  3.7484e+01|  -10.203869|  1.2539e-06|    0.105447|
|        6380|  3.7484e+01|  3.7484e+01|  -10.206464|  1.2466e-06|    0.105448|
|        6390|  3.7484e+01|  3.7484e+01|  -10.209059|  1.2393e-06|    0.105449|
|        6400|  3.7484e+01|  3.7484e+01|  -10.211655|  1.2321e-06|    0.105451|
+-----------------------------------------------------------------------+
|        File Writing Summary       |              Filename             |
+-----------------------------------------------------------------------+
|SU2 binary restart                 |restart_flow_G5.dat                |
|Paraview                           |flow_G5.vtu                        |
|Paraview surface                   |surface_flow_G5.vtu                |
+-----------------------------------------------------------------------+
+-----------------------------------------------------------------------------+
|  Inner_Iter|     Min CFL|     Max CFL|      rms[P]|  Cauchy[CD]|          CD|
+-----------------------------------------------------------------------------+
|        6410|  3.7484e+01|  3.7484e+01|  -10.214250|  1.2249e-06|    0.105452|
|        6420|  3.7484e+01|  3.7484e+01|  -10.216844|  1.2178e-06|    0.105453|
|        6430|  3.7484e+01|  3.7484e+01|  -10.219438|  1.2107e-06|    0.105454|
|        6440|  3.7484e+01|  3.7484e+01|  -10.222030|  1.2036e-06|    0.105455|
|        6450|  3.7484e+01|  3.7484e+01|  -10.224621|  1.1966e-06|    0.105457|
|        6460|  3.7484e+01|  3.7484e+01|  -10.227212|  1.1896e-06|    0.105458|
|        6470|  3.7484e+01|  3.7484e+01|  -10.229801|  1.1827e-06|    0.105459|
|        6480|  3.7484e+01|  3.7484e+01|  -10.232391|  1.1758e-06|    0.105460|
|        6490|  3.7484e+01|  3.7484e+01|  -10.234980|  1.1689e-06|    0.105461|
|        6500|  3.7484e+01|  3.7484e+01|  -10.237569|  1.1621e-06|    0.105462|
|        6510|  3.7484e+01|  3.7484e+01|  -10.240157|  1.1553e-06|    0.105464|
|        6520|  3.7484e+01|  3.7484e+01|  -10.242744|  1.1486e-06|    0.105465|
|        6530|  3.7484e+01|  3.7484e+01|  -10.245331|  1.1419e-06|    0.105466|
|        6540|  3.7484e+01|  3.7484e+01|  -10.247917|  1.1352e-06|    0.105467|
|        6550|  3.7484e+01|  3.7484e+01|  -10.250503|  1.1286e-06|    0.105468|
|        6560|  3.7484e+01|  3.7484e+01|  -10.253088|  1.1220e-06|    0.105469|
|        6570|  3.7484e+01|  3.7484e+01|  -10.255673|  1.1155e-06|    0.105470|
|        6580|  3.7484e+01|  3.7484e+01|  -10.258258|  1.1089e-06|    0.105471|
|        6590|  3.7484e+01|  3.7484e+01|  -10.260842|  1.1025e-06|    0.105472|
|        6600|  3.7484e+01|  3.7484e+01|  -10.263425|  1.0960e-06|    0.105473|
+-----------------------------------------------------------------------+
|        File Writing Summary       |              Filename             |
+-----------------------------------------------------------------------+
|SU2 binary restart                 |restart_flow_G5.dat                |
|Paraview                           |flow_G5.vtu                        |
|Paraview surface                   |surface_flow_G5.vtu                |
+-----------------------------------------------------------------------+
+-----------------------------------------------------------------------------+
|  Inner_Iter|     Min CFL|     Max CFL|      rms[P]|  Cauchy[CD]|          CD|
+-----------------------------------------------------------------------------+
|        6610|  3.7484e+01|  3.7484e+01|  -10.266009|  1.0896e-06|    0.105475|
|        6620|  3.7484e+01|  3.7484e+01|  -10.268591|  1.0832e-06|    0.105476|
|        6630|  3.7484e+01|  3.7484e+01|  -10.271174|  1.0769e-06|    0.105477|
|        6640|  3.7484e+01|  3.7484e+01|  -10.273756|  1.0706e-06|    0.105478|
|        6650|  3.7484e+01|  3.7484e+01|  -10.276337|  1.0643e-06|    0.105479|
|        6660|  3.7484e+01|  3.7484e+01|  -10.278918|  1.0581e-06|    0.105480|
|        6670|  3.7484e+01|  3.7484e+01|  -10.281499|  1.0519e-06|    0.105481|
|        6680|  3.7484e+01|  3.7484e+01|  -10.284079|  1.0458e-06|    0.105482|
|        6690|  3.7484e+01|  3.7484e+01|  -10.286658|  1.0397e-06|    0.105483|
|        6700|  3.7484e+01|  3.7484e+01|  -10.289237|  1.0336e-06|    0.105484|
|        6710|  3.7484e+01|  3.7484e+01|  -10.291815|  1.0275e-06|    0.105485|
|        6720|  3.7484e+01|  3.7484e+01|  -10.294394|  1.0215e-06|    0.105486|
|        6730|  3.7484e+01|  3.7484e+01|  -10.296971|  1.0155e-06|    0.105487|
|        6740|  3.7484e+01|  3.7484e+01|  -10.299549|  1.0096e-06|    0.105488|
|        6750|  3.7484e+01|  3.7484e+01|  -10.302126|  1.0037e-06|    0.105489|
|        6757|  3.7484e+01|  3.7484e+01|  -10.303929|  9.9958e-07|    0.105490|

----------------------------- Solver Exit -------------------------------
All convergence criteria satisfied.
+-----------------------------------------------------------------------+
|      Convergence Field     |     Value    |   Criterion  |  Converged |
+-----------------------------------------------------------------------+
|                      rms[P]|      -10.3039|          < -9|         Yes|
|                  Cauchy[CD]|   9.99584e-07|       < 1e-06|         Yes|
+-----------------------------------------------------------------------+
-------------------------------------------------------------------------
+-----------------------------------------------------------------------+
|        File Writing Summary       |              Filename             |
+-----------------------------------------------------------------------+
|SU2 binary restart                 |restart_flow_G5.dat                |
|Paraview                           |flow_G5.vtu                        |
|Paraview surface                   |surface_flow_G5.vtu                |
+-----------------------------------------------------------------------+

------------------------- Solver Postprocessing -------------------------
Deleted CNumerics container.
Deleted CIntegration container.
Deleted CSolver container.
Deleted CIteration container.
Deleted CInterface container.
Deleted CGeometry container.
Deleted CFreeFormDefBox class.
Deleted CSurfaceMovement class.
Deleted CVolumetricMovement class.
Deleted CConfig container.
Deleted nInst container.
Deleted COutput class.
-------------------------------------------------------------------------

------------------------- Exit Success (SU2_CFD) ------------------------

