
-------------------------------------------------------------------------
|    ___ _   _ ___                                                      |
|   / __| | | |_  )   Release 7.4.0 "Blackbird"                         |
|   \__ \ |_| |/ /                                                      |
|   |___/\___//___|   Suite (Computational Fluid Dynamics Code)         |
|                                                                       |
-------------------------------------------------------------------------
| SU2 Project Website: https://su2code.github.io                        |
|                                                                       |
| The SU2 Project is maintained by the SU2 Foundation                   |
| (http://su2foundation.org)                                            |
-------------------------------------------------------------------------
| Copyright 2012-2022, SU2 Contributors                                 |
|                                                                       |
| SU2 is free software; you can redistribute it and/or                  |
| modify it under the terms of the GNU Lesser General Public            |
| License as published by the Free Software Foundation; either          |
| version 2.1 of the License, or (at your option) any later version.    |
|                                                                       |
| SU2 is distributed in the hope that it will be useful,                |
| but WITHOUT ANY WARRANTY; without even the implied warranty of        |
| MERCHANTABILITY or FITNESS FOR A PARTICULAR PURPOSE. See the GNU      |
| Lesser General Public License for more details.                       |
|                                                                       |
| You should have received a copy of the GNU Lesser General Public      |
| License along with SU2. If not, see <http://www.gnu.org/licenses/>.   |
-------------------------------------------------------------------------

Parsing config file for zone 0

----------------- Physical Case Definition ( Zone 0 ) -------------------
Incompressible RANS equations.
Turbulence model: Spalart-Allmaras-noft2
Hybrid RANS/LES: No Hybrid RANS/LES
No restart solution, use the values at infinity (freestream).
Non-Dimensional simulation using intialization values.
The reference area is 1 m^2.
The semi-span will be computed using the max y(3D) value.
The reference length is 1.00898 m.
Reference origin for moment evaluation is (-0.756, 0, 0).
Surface(s) where the force coefficients are evaluated: AIRFOIL.

Surface(s) plotted in the output file: AIRFOIL.
Input mesh file name: ../meshG5/meshG5.su2

--------------- Space Numerical Integration ( Zone 0 ) ------------------
Flux difference splitting (FDS) upwind scheme for the flow inviscid terms.
First order integration in space.
Average of gradients with correction (viscous flow terms).
Average of gradients with correction (viscous turbulence terms).
Gradient for upwind reconstruction: unweighted Least-Squares.
Gradient for viscous and source terms: Green-Gauss.

--------------- Time Numerical Integration  ( Zone 0 ) ------------------
Local time stepping (steady state simulation).
Euler implicit method for the flow equations.
FGMRES is used for solving the linear system.
Using a ILU(0) preconditioning.
Convergence criteria of the linear solver: 1e-06.
Max number of linear iterations: 10.
CFL adaptation. Factor down: 0.1, factor up: 1.2,
                lower limit: 1, upper limit: 1000,
                acceptable linear residual: 0.001.
Courant-Friedrichs-Lewy number:        2
Euler implicit time integration for the turbulence model.

------------------ Convergence Criteria  ( Zone 0 ) ---------------------
Maximum number of solver subiterations: 9999.
Begin convergence monitoring at iteration 10.
Residual minimum value: 1e-9.
Cauchy series min. value: 1e-06.
Number of Cauchy elements: 250.
Begin windowed time average at iteration 0.

-------------------- Output Information ( Zone 0 ) ----------------------
File writing frequency: 
+------------------------------------+
|                     File| Frequency|
+------------------------------------+
|                  RESTART|       200|
|                 PARAVIEW|       200|
|         SURFACE_PARAVIEW|       200|
+------------------------------------+
Writing the convergence history file every 1 inner iterations.
Writing the screen convergence history every 10 inner iterations.
The tabular file format is CSV (.csv).
Convergence history file name: history_aoa145.
Forces breakdown file name: forces_breakdown.dat.
Surface file name: surface_flow_aoa145.
Volume file name: flow_aoa145.
Restart file name: restart_flow_aoa145.dat.

------------- Config File Boundary Information ( Zone 0 ) ---------------
+-----------------------------------------------------------------------+
|                        Marker Type|                        Marker Name|
+-----------------------------------------------------------------------+
|                          Far-field|                           FARFIELD|
+-----------------------------------------------------------------------+
|                     Heat flux wall|                            AIRFOIL|
+-----------------------------------------------------------------------+

-------------------- Output Preprocessing ( Zone 0 ) --------------------

WARNING: SURFACE_PRESSURE_DROP can only be computed for at least 2 surfaces (outlet, inlet, ...)

Screen output fields: INNER_ITER, MIN_CFL, MAX_CFL, RMS_PRESSURE, CAUCHY_DRAG, DRAG
History output group(s): INNER_ITER, MIN_CFL, MAX_CFL, RMS_RES, LIFT, DRAG, MOMENT_Z, CAUCHY
Convergence field(s): RMS_PRESSURE, DRAG
Warning: No (valid) fields chosen for time convergence monitoring. Time convergence monitoring inactive.
Volume output fields: COORDINATES, SOLUTION, PRIMITIVE, RESIDUAL, MESH_QUALITY

------------------- Geometry Preprocessing ( Zone 0 ) -------------------
Two dimensional problem.
361479 grid points before partitioning.
360180 volume elements before partitioning.
2 surface markers.
724 boundary elements in index 0 (Marker = AIRFOIL).
1874 boundary elements in index 1 (Marker = FARFIELD).
Executing the partitioning functions.
Building the graph adjacency structure.
Calling ParMETIS... graph partitioning complete (4050 edge cuts).
Distributing ParMETIS coloring.
Rebalancing vertices.
Rebalancing volume element connectivity.
Rebalancing markers and surface elements.
369602 vertices including ghost points. 
364230 interior elements including halo cells. 
364230 quadrilaterals.
Establishing MPI communication patterns.
Setting point connectivity.
Renumbering points (Reverse Cuthill McKee Ordering).
Recomputing point connectivity.
Setting element connectivity.
Checking the numerical grid orientation.
All volume elements are correctly orientend.
There has been a re-orientation of 1305 LINE surface elements.
Identifying edges and vertices.
Setting the control volume structure.
Area of the computational grid: 103207.
Searching for the closest normal neighbors to the surfaces.
Storing a mapping from global to local point index.
Compute the surface curvature.
Max K: 227502. Mean K: 205.598. Standard deviation K: 4719.73.
Checking for periodicity.
Computing mesh quality statistics for the dual control volumes.
+--------------------------------------------------------------+
|           Mesh Quality Metric|        Minimum|        Maximum|
+--------------------------------------------------------------+
|    Orthogonality Angle (deg.)|        75.9136|             90|
|     CV Face Area Aspect Ratio|        1.00002|    3.17894e+06|
|           CV Sub-Volume Ratio|              1|         387.07|
+--------------------------------------------------------------+
Finding max control volume width.
Communicating number of neighbors.
Wetted area = 2.0597 m.
Area projection in the x-plane = 0.121116 m, y-plane = 1.00881 m.
Max. coordinate in the x-direction = 1.00898 m, y-direction = 0.0759837 m.
Min. coordinate in the x-direction = 4.86614e-06 m, y-direction = -0.0451345 m.
Computing wall distances.

-------------------- Solver Preprocessing ( Zone 0 ) --------------------
Incompressible flow: rho_ref, vel_ref, and temp_ref
are based on the initial values, p_ref = rho_ref*vel_ref^2.
Force coefficients computed using initial values.
The reference area for force coeffs. is 1 m^2.
The reference length for force coeffs. is 1.00898 m.
The pressure is decomposed into thermodynamic and dynamic components.
The initial value of the dynamic pressure is 0.
Mach number: 0.0276748, computed using the Bulk modulus.
For external flows, the initial state is imposed at the far-field.
Angle of attack (deg): 14.4998, computed using the initial velocity.
Side slip angle (deg): 0, computed using the initial velocity.
Reynolds number per meter: 595002, computed using initial values.
Reynolds number is a byproduct of inputs only (not used internally).
SI units only. The grid should be dimensional (meters).
No energy equation.

-- Models:
+------------------------------------------------------------------------------+
|          Viscosity Model|        Conductivity Model|              Fluid Model|
+------------------------------------------------------------------------------+
|       CONSTANT_VISCOSITY|          CONSTANT_PRANDTL|         CONSTANT_DENSITY|
+------------------------------------------------------------------------------+
-- Fluid properties:
+------------------------------------------------------------------------------+
|                  Name|    Dim. value|    Ref. value|      Unit|Non-dim. value|
+------------------------------------------------------------------------------+
|             Viscosity|      1.92e-05|        11.424|   N.s/m^2|   1.68067e-06|
+------------------------------------------------------------------------------+
|        Prandtl (Lam.)|             -|             -|         -|          0.72|
|       Prandtl (Turb.)|             -|             -|         -|           0.9|
+------------------------------------------------------------------------------+
|          Bulk Modulus|        142000|             1|        Pa|        142000|
+------------------------------------------------------------------------------+
-- Initial and free-stream conditions:
+------------------------------------------------------------------------------+
|                  Name|    Dim. value|    Ref. value|      Unit|Non-dim. value|
+------------------------------------------------------------------------------+
|      Dynamic Pressure|             0|       108.757|        Pa|             0|
|        Total Pressure|       54.3786|       108.757|        Pa|           0.5|
|               Density|           1.2|           1.2|    kg/m^3|             1|
|            Velocity-X|        9.2168|       9.52003|       m/s|      0.968148|
|            Velocity-Y|        2.3836|       9.52003|       m/s|      0.250377|
|    Velocity Magnitude|       9.52003|       9.52003|       m/s|             1|
+------------------------------------------------------------------------------+
|             Viscosity|      1.92e-05|        11.424|   N.s/m^2|   1.68067e-06|
|          Conductivity|             -|       3.59317|   W/m^2.K|             -|
|     Turb. Kin. Energy|       1.35946|        90.631|   m^2/s^2|         0.015|
|     Spec. Dissipation|       8496.65|       9.52003|       1/s|       892.503|
+------------------------------------------------------------------------------+
|           Mach Number|             -|             -|         -|     0.0276748|
|       Reynolds Number|             -|             -|         -|        595002|
+------------------------------------------------------------------------------+
Initialize Jacobian structure (Navier-Stokes). MG level: 0.
Initialize Jacobian structure (SA model).

------------------- Numerics Preprocessing ( Zone 0 ) -------------------

----------------- Integration Preprocessing ( Zone 0 ) ------------------

------------------- Iteration Preprocessing ( Zone 0 ) ------------------
Euler/Navier-Stokes/RANS fluid iteration.

------------------------------ Begin Solver -----------------------------

Simulation Run using the Single-zone Driver
+-----------------------------------------------------------------------------+
|  Inner_Iter|     Min CFL|     Max CFL|      rms[P]|  Cauchy[CD]|          CD|
+-----------------------------------------------------------------------------+
|           0|  2.4000e+00|  2.4000e+00|   -4.378987|  1.0000e+00|    0.691630|
|          10|  1.4860e+01|  1.4860e+01|   -5.109341|  1.1987e-03|    0.922062|
|          20|  7.6675e+00|  7.6675e+00|   -5.279344|  1.2667e-03|    0.906535|
|          30|  3.2969e+00|  3.2969e+00|   -5.209861|  1.5330e-03|    0.848425|
|          40|  2.0413e+01|  2.0413e+01|   -5.160994|  1.7674e-03|    0.800329|
|          50|  1.0533e+01|  1.0533e+01|   -5.121622|  2.4659e-03|    0.673648|
|          60|  5.4348e+00|  5.4348e+00|   -5.112337|  3.4308e-03|    0.531315|
|          70|  3.3651e+01|  3.3651e+01|   -5.101478|  4.2153e-03|    0.437793|
|          80|  1.7363e+01|  1.7363e+01|   -5.124236|  5.4868e-03|    0.321098|
|          90|  4.3205e+01|  4.3205e+01|   -5.230122|  8.4038e-03|    0.159192|
|         100|  4.3205e+01|  4.3205e+01|   -5.275700|  1.1361e-02|    0.074337|
|         110|  4.3205e+01|  4.3205e+01|   -5.301326|  1.4347e-02|   -0.000328|
|         120|  1.2901e+01|  1.2901e+01|   -5.295718|  1.5788e-02|   -0.036343|
|         130|  6.6565e+00|  6.6565e+00|   -5.301556|  1.6478e-02|   -0.028203|
|         140|  4.1216e+01|  4.1216e+01|   -5.305608|  1.7948e-02|    0.008547|
|         150|  2.1266e+01|  2.1266e+01|   -5.316111|  2.0329e-02|    0.068079|
|         160|  1.0973e+01|  1.0973e+01|   -5.313554|  2.3589e-02|    0.169828|
|         170|  4.7182e+01|  4.7182e+01|   -5.312739|  2.5436e-02|    0.272641|
|         180|  6.7942e+00|  6.7942e+00|   -5.339909|  2.6134e-02|    0.309782|
|         190|  4.2068e+01|  4.2068e+01|   -5.329669|  2.6555e-02|    0.279067|
|         200|  8.7231e+00|  8.7231e+00|   -5.322382|  2.8802e-02|    0.162077|
+-----------------------------------------------------------------------+
|        File Writing Summary       |              Filename             |
+-----------------------------------------------------------------------+
|SU2 binary restart                 |restart_flow_aoa145.dat            |
|Paraview                           |flow_aoa145.vtu                    |
|Paraview surface                   |surface_flow_aoa145.vtu            |
+-----------------------------------------------------------------------+
+-----------------------------------------------------------------------------+
|  Inner_Iter|     Min CFL|     Max CFL|      rms[P]|  Cauchy[CD]|          CD|
+-----------------------------------------------------------------------------+
|         210|  5.4011e+01|  5.4011e+01|   -5.309941|  3.0202e-02|    0.115031|
|         220|  2.7869e+01|  2.7869e+01|   -5.312513|  3.0830e-02|    0.098539|
|         230|  1.4380e+01|  1.4380e+01|   -5.335011|  3.1145e-02|    0.102279|
|         240|  5.1525e+01|  5.1525e+01|   -5.347897|  3.2241e-02|    0.135139|
|         250|  2.6586e+01|  2.6586e+01|   -5.360825|  3.2790e-02|    0.155293|
|         260|  1.3718e+01|  1.3718e+01|   -5.373987|  3.1926e-02|    0.168962|
|         270|  7.0780e+00|  7.0780e+00|   -5.365597|  3.2002e-02|    0.175160|
|         280|  4.3825e+01|  4.3825e+01|   -5.358317|  3.1785e-02|    0.177325|
|         290|  6.3108e+00|  6.3108e+00|   -5.397050|  3.1733e-02|    0.185632|
|         300|  3.9075e+01|  3.9075e+01|   -5.421850|  3.1056e-02|    0.185015|
|         310|  2.0162e+01|  2.0162e+01|   -5.442806|  3.0244e-02|    0.178104|
|         320|  1.0403e+01|  1.0403e+01|   -5.448984|  2.9916e-02|    0.159036|
|         330|  5.3677e+01|  5.3677e+01|   -5.437113|  2.9242e-02|    0.137151|
|         340|  6.4413e+00|  6.4413e+00|   -5.433524|  2.6963e-02|    0.117241|
|         350|  3.9883e+01|  3.9883e+01|   -5.458456|  2.4083e-02|    0.119517|
|         360|  5.7431e+01|  5.7431e+01|   -5.575762|  2.1827e-02|    0.143700|
|         370|  1.4291e+01|  1.4291e+01|   -5.591944|  2.0787e-02|    0.158999|
|         380|  7.3737e+00|  7.3737e+00|   -5.578814|  2.0293e-02|    0.167015|
|         390|  4.5656e+01|  4.5656e+01|   -5.582319|  1.8850e-02|    0.167602|
|         400|  6.5745e+00|  6.5745e+00|   -5.665355|  1.6889e-02|    0.151001|
+-----------------------------------------------------------------------+
|        File Writing Summary       |              Filename             |
+-----------------------------------------------------------------------+
|SU2 binary restart                 |restart_flow_aoa145.dat            |
|Paraview                           |flow_aoa145.vtu                    |
|Paraview surface                   |surface_flow_aoa145.vtu            |
+-----------------------------------------------------------------------+
+-----------------------------------------------------------------------------+
|  Inner_Iter|     Min CFL|     Max CFL|      rms[P]|  Cauchy[CD]|          CD|
+-----------------------------------------------------------------------------+
|         410|  4.0707e+01|  4.0707e+01|   -5.710951|  1.3837e-02|    0.143354|
|         420|  2.1004e+01|  2.1004e+01|   -5.756292|  1.2262e-02|    0.134012|
|         430|  1.0838e+01|  1.0838e+01|   -5.783099|  1.1840e-02|    0.125133|
|         440|  5.5920e+01|  5.5920e+01|   -5.785057|  1.1541e-02|    0.121363|
|         450|  1.6698e+01|  1.6698e+01|   -5.806675|  9.3570e-03|    0.123024|
|         460|  8.6156e+00|  8.6156e+00|   -5.847354|  8.1181e-03|    0.128094|
|         470|  5.3345e+01|  5.3345e+01|   -5.887047|  7.6428e-03|    0.133084|
|         480|  2.7525e+01|  2.7525e+01|   -5.957487|  7.4654e-03|    0.137755|
|         490|  8.2189e+00|  8.2189e+00|   -6.027549|  6.5130e-03|    0.142789|
|         500|  5.0890e+01|  5.0890e+01|   -5.997649|  5.9775e-03|    0.142628|
|         510|  6.1067e+01|  6.1067e+01|   -5.967974|  5.8588e-03|    0.135133|
|         520|  1.5196e+01|  1.5196e+01|   -6.113032|  5.8893e-03|    0.129392|
|         530|  7.8406e+00|  7.8406e+00|   -6.318527|  5.9557e-03|    0.125715|
|         540|  4.8547e+01|  4.8547e+01|   -6.348168|  5.8032e-03|    0.124770|
|         550|  2.5049e+01|  2.5049e+01|   -6.238355|  5.8028e-03|    0.125361|
|         560|  6.2330e+01|  6.2330e+01|   -6.179080|  5.7782e-03|    0.129450|
|         570|  2.2334e+01|  2.2334e+01|   -6.289183|  5.3759e-03|    0.131233|
|         580|  1.1524e+01|  1.1524e+01|   -6.483922|  4.7972e-03|    0.131727|
|         590|  5.9460e+01|  5.9460e+01|   -6.448233|  4.1950e-03|    0.130552|
|         600|  1.2330e+01|  1.2330e+01|   -6.251407|  4.2154e-03|    0.127425|
+-----------------------------------------------------------------------+
|        File Writing Summary       |              Filename             |
+-----------------------------------------------------------------------+
|SU2 binary restart                 |restart_flow_aoa145.dat            |
|Paraview                           |flow_aoa145.vtu                    |
|Paraview surface                   |surface_flow_aoa145.vtu            |
+-----------------------------------------------------------------------+
+-----------------------------------------------------------------------------+
|  Inner_Iter|     Min CFL|     Max CFL|      rms[P]|  Cauchy[CD]|          CD|
+-----------------------------------------------------------------------------+
|         610|  6.3619e+00|  6.3619e+00|   -6.263513|  3.5432e-03|    0.125598|
|         620|  3.9391e+01|  3.9391e+01|   -6.329539|  3.1629e-03|    0.124938|
|         630|  2.0325e+01|  2.0325e+01|   -6.507824|  2.9871e-03|    0.124303|
|         640|  6.0690e+01|  6.0690e+01|   -6.539230|  2.9677e-03|    0.124187|
|         650|  6.0690e+01|  6.0690e+01|   -6.395194|  2.5679e-03|    0.124810|
|         660|  6.0690e+01|  6.0690e+01|   -6.613665|  2.3834e-03|    0.124194|
|         670|  6.0690e+01|  6.0690e+01|   -6.510651|  2.2099e-03|    0.121204|
|         680|  6.0690e+01|  6.0690e+01|   -6.476153|  2.0229e-03|    0.118555|
|         690|  2.6095e+01|  2.6095e+01|   -6.584407|  1.9137e-03|    0.118161|
|         700|  6.4934e+01|  6.4934e+01|   -6.706493|  1.8669e-03|    0.118630|
|         710|  6.4934e+01|  6.4934e+01|   -6.661524|  1.7312e-03|    0.119387|
|         720|  6.4934e+01|  6.4934e+01|   -6.786016|  1.6062e-03|    0.118579|
|         730|  6.4934e+01|  6.4934e+01|   -6.704749|  1.5403e-03|    0.116475|
|         740|  6.4934e+01|  6.4934e+01|   -6.708678|  1.4449e-03|    0.115091|
|         750|  6.4934e+01|  6.4934e+01|   -6.797283|  1.4480e-03|    0.115459|
|         760|  7.7921e+01|  7.7921e+01|   -6.885303|  1.2574e-03|    0.116211|
|         770|  4.0205e+01|  4.0205e+01|   -6.943956|  1.0848e-03|    0.116228|
|         780|  2.0745e+01|  2.0745e+01|   -6.987121|  9.7801e-04|    0.115976|
|         790|  1.0704e+01|  1.0704e+01|   -6.961863|  9.7021e-04|    0.115328|
|         800|  6.6276e+01|  6.6276e+01|   -6.924140|  9.7077e-04|    0.114715|
+-----------------------------------------------------------------------+
|        File Writing Summary       |              Filename             |
+-----------------------------------------------------------------------+
|SU2 binary restart                 |restart_flow_aoa145.dat            |
|Paraview                           |flow_aoa145.vtu                    |
|Paraview surface                   |surface_flow_aoa145.vtu            |
+-----------------------------------------------------------------------+
+-----------------------------------------------------------------------------+
|  Inner_Iter|     Min CFL|     Max CFL|      rms[P]|  Cauchy[CD]|          CD|
+-----------------------------------------------------------------------------+
|         810|  6.6276e+01|  6.6276e+01|   -6.864361|  8.7748e-04|    0.113720|
|         820|  6.6276e+01|  6.6276e+01|   -6.873643|  8.3689e-04|    0.114038|
|         830|  6.6276e+01|  6.6276e+01|   -6.913987|  8.4801e-04|    0.114902|
|         840|  6.6276e+01|  6.6276e+01|   -6.939767|  8.2198e-04|    0.115034|
|         850|  6.6276e+01|  6.6276e+01|   -6.916727|  7.4843e-04|    0.114359|
|         860|  6.6276e+01|  6.6276e+01|   -6.881028|  7.0870e-04|    0.113843|
|         870|  6.6276e+01|  6.6276e+01|   -6.878420|  6.9657e-04|    0.114071|
|         880|  6.6276e+01|  6.6276e+01|   -6.897006|  6.9555e-04|    0.114625|
|         890|  6.6276e+01|  6.6276e+01|   -6.919032|  6.9502e-04|    0.114815|
|         900|  1.6492e+01|  1.6492e+01|   -6.936879|  6.8040e-04|    0.114660|
|         910|  8.5094e+00|  8.5094e+00|   -6.936091|  6.6305e-04|    0.114468|
|         920|  5.2688e+01|  5.2688e+01|   -6.939829|  5.6935e-04|    0.114357|
|         930|  2.7186e+01|  2.7186e+01|   -6.938087|  4.8427e-04|    0.114259|
|         940|  1.4027e+01|  1.4027e+01|   -6.932108|  4.7242e-04|    0.114226|
|         950|  7.2377e+00|  7.2377e+00|   -6.925454|  4.5796e-04|    0.114289|
|         960|  4.4814e+01|  4.4814e+01|   -6.925374|  4.3448e-04|    0.114345|
|         970|  2.3123e+01|  2.3123e+01|   -6.922167|  4.1067e-04|    0.114450|
|         980|  1.1931e+01|  1.1931e+01|   -6.919870|  3.4216e-04|    0.114540|
|         990|  7.3874e+01|  7.3874e+01|   -6.922803|  2.9490e-04|    0.114548|
|        1000|  7.3874e+01|  7.3874e+01|   -6.934261|  2.8437e-04|    0.114381|
+-----------------------------------------------------------------------+
|        File Writing Summary       |              Filename             |
+-----------------------------------------------------------------------+
|SU2 binary restart                 |restart_flow_aoa145.dat            |
|Paraview                           |flow_aoa145.vtu                    |
|Paraview surface                   |surface_flow_aoa145.vtu            |
+-----------------------------------------------------------------------+
+-----------------------------------------------------------------------------+
|  Inner_Iter|     Min CFL|     Max CFL|      rms[P]|  Cauchy[CD]|          CD|
+-----------------------------------------------------------------------------+
|        1010|  3.8117e+01|  3.8117e+01|   -6.948146|  2.6218e-04|    0.114274|
|        1020|  7.9040e+01|  7.9040e+01|   -6.951432|  2.6644e-04|    0.114104|
|        1030|  7.9040e+01|  7.9040e+01|   -6.960005|  2.6019e-04|    0.114035|
|        1040|  7.9040e+01|  7.9040e+01|   -6.973349|  2.4007e-04|    0.113969|
|        1050|  7.9040e+01|  7.9040e+01|   -6.997740|  2.2544e-04|    0.113779|
|        1060|  7.9040e+01|  7.9040e+01|   -7.030592|  1.9900e-04|    0.113539|
|        1070|  1.6390e+01|  1.6390e+01|   -7.062184|  1.8950e-04|    0.113410|
|        1080|  8.4567e+00|  8.4567e+00|   -7.076528|  1.6236e-04|    0.113324|
|        1090|  5.2362e+01|  5.2362e+01|   -7.092593|  1.5412e-04|    0.113278|
|        1100|  7.5401e+01|  7.5401e+01|   -7.128894|  1.3605e-04|    0.113123|
|        1110|  7.5401e+01|  7.5401e+01|   -7.170224|  1.2510e-04|    0.112921|
|        1120|  7.5401e+01|  7.5401e+01|   -7.206729|  1.2343e-04|    0.112716|
|        1130|  7.5401e+01|  7.5401e+01|   -7.234788|  1.1059e-04|    0.112532|
|        1140|  7.5401e+01|  7.5401e+01|   -7.253445|  1.0929e-04|    0.112369|
|        1150|  1.8762e+01|  1.8762e+01|   -7.261174|  1.0790e-04|    0.112257|
|        1160|  8.0674e+01|  8.0674e+01|   -7.259969|  1.0513e-04|    0.112146|
|        1170|  8.0674e+01|  8.0674e+01|   -7.253649|  1.0776e-04|    0.111964|
|        1180|  8.0674e+01|  8.0674e+01|   -7.242040|  1.0954e-04|    0.111817|
|        1190|  8.0674e+01|  8.0674e+01|   -7.231333|  1.1241e-04|    0.111696|
|        1200|  8.0674e+01|  8.0674e+01|   -7.221555|  1.1451e-04|    0.111577|
+-----------------------------------------------------------------------+
|        File Writing Summary       |              Filename             |
+-----------------------------------------------------------------------+
|SU2 binary restart                 |restart_flow_aoa145.dat            |
|Paraview                           |flow_aoa145.vtu                    |
|Paraview surface                   |surface_flow_aoa145.vtu            |
+-----------------------------------------------------------------------+
+-----------------------------------------------------------------------------+
|  Inner_Iter|     Min CFL|     Max CFL|      rms[P]|  Cauchy[CD]|          CD|
+-----------------------------------------------------------------------------+
|        1210|  8.0674e+01|  8.0674e+01|   -7.214746|  1.1642e-04|    0.111469|
|        1220|  8.0674e+01|  8.0674e+01|   -7.213343|  1.1569e-04|    0.111387|
|        1230|  8.0674e+01|  8.0674e+01|   -7.218324|  1.1461e-04|    0.111329|
|        1240|  8.0674e+01|  8.0674e+01|   -7.230041|  1.1565e-04|    0.111284|
|        1250|  2.4089e+01|  2.4089e+01|   -7.244624|  1.1051e-04|    0.111264|
|        1260|  1.2429e+01|  1.2429e+01|   -7.253049|  1.0737e-04|    0.111248|
|        1270|  7.6960e+01|  7.6960e+01|   -7.261635|  1.0186e-04|    0.111235|
|        1280|  7.6960e+01|  7.6960e+01|   -7.286769|  9.9802e-05|    0.111225|
|        1290|  7.6960e+01|  7.6960e+01|   -7.321850|  9.7849e-05|    0.111233|
|        1300|  1.5958e+01|  1.5958e+01|   -7.355546|  9.1644e-05|    0.111246|
|        1310|  8.2342e+00|  8.2342e+00|   -7.373820|  8.3538e-05|    0.111253|
|        1320|  5.0984e+01|  5.0984e+01|   -7.391553|  7.9150e-05|    0.111256|
|        1330|  7.3417e+01|  7.3417e+01|   -7.433163|  7.6771e-05|    0.111275|
|        1340|  7.3417e+01|  7.3417e+01|   -7.484870|  7.6063e-05|    0.111300|
|        1350|  7.3417e+01|  7.3417e+01|   -7.533806|  7.2038e-05|    0.111341|
|        1360|  7.3417e+01|  7.3417e+01|   -7.572080|  6.6292e-05|    0.111380|
|        1370|  7.3417e+01|  7.3417e+01|   -7.592938|  6.0270e-05|    0.111415|
|        1380|  7.3417e+01|  7.3417e+01|   -7.593925|  5.5000e-05|    0.111450|
|        1390|  1.0572e+01|  1.0572e+01|   -7.579737|  5.0600e-05|    0.111489|
|        1400|  6.5459e+01|  6.5459e+01|   -7.577546|  4.6911e-05|    0.111498|
+-----------------------------------------------------------------------+
|        File Writing Summary       |              Filename             |
+-----------------------------------------------------------------------+
|SU2 binary restart                 |restart_flow_aoa145.dat            |
|Paraview                           |flow_aoa145.vtu                    |
|Paraview surface                   |surface_flow_aoa145.vtu            |
+-----------------------------------------------------------------------+
+-----------------------------------------------------------------------------+
|  Inner_Iter|     Min CFL|     Max CFL|      rms[P]|  Cauchy[CD]|          CD|
+-----------------------------------------------------------------------------+
|        1410|  7.8551e+01|  7.8551e+01|   -7.556156|  4.4796e-05|    0.111548|
|        1420|  7.8551e+01|  7.8551e+01|   -7.539849|  3.9663e-05|    0.111587|
|        1430|  7.8551e+01|  7.8551e+01|   -7.531237|  3.5937e-05|    0.111629|
|        1440|  7.8551e+01|  7.8551e+01|   -7.531933|  3.2981e-05|    0.111668|
|        1450|  7.8551e+01|  7.8551e+01|   -7.541593|  3.0006e-05|    0.111704|
|        1460|  7.8551e+01|  7.8551e+01|   -7.560786|  2.7370e-05|    0.111739|
|        1470|  7.8551e+01|  7.8551e+01|   -7.589679|  2.5670e-05|    0.111773|
|        1480|  7.8551e+01|  7.8551e+01|   -7.627649|  2.4818e-05|    0.111807|
|        1490|  7.8551e+01|  7.8551e+01|   -7.674527|  2.4323e-05|    0.111839|
|        1500|  1.6288e+01|  1.6288e+01|   -7.718341|  2.4345e-05|    0.111859|
|        1510|  8.4044e+00|  8.4044e+00|   -7.742038|  2.4223e-05|    0.111872|
|        1520|  5.2038e+01|  5.2038e+01|   -7.764946|  2.4036e-05|    0.111880|
|        1530|  7.4935e+01|  7.4935e+01|   -7.817283|  2.4738e-05|    0.111910|
|        1540|  7.4935e+01|  7.4935e+01|   -7.880928|  2.5474e-05|    0.111940|
|        1550|  2.6850e+01|  2.6850e+01|   -7.914122|  2.5521e-05|    0.111955|
|        1560|  1.3854e+01|  1.3854e+01|   -7.940123|  2.5780e-05|    0.111971|
|        1570|  7.1485e+01|  7.1485e+01|   -7.958398|  2.6100e-05|    0.111984|
|        1580|  7.1485e+01|  7.1485e+01|   -7.989278|  2.6457e-05|    0.112013|
|        1590|  7.1485e+01|  7.1485e+01|   -7.999001|  2.6675e-05|    0.112045|
|        1600|  7.1485e+01|  7.1485e+01|   -7.989303|  2.6436e-05|    0.112079|
+-----------------------------------------------------------------------+
|        File Writing Summary       |              Filename             |
+-----------------------------------------------------------------------+
|SU2 binary restart                 |restart_flow_aoa145.dat            |
|Paraview                           |flow_aoa145.vtu                    |
|Paraview surface                   |surface_flow_aoa145.vtu            |
+-----------------------------------------------------------------------+
+-----------------------------------------------------------------------------+
|  Inner_Iter|     Min CFL|     Max CFL|      rms[P]|  Cauchy[CD]|          CD|
+-----------------------------------------------------------------------------+
|        1610|  2.1345e+01|  2.1345e+01|   -7.980474|  2.5617e-05|    0.112095|
|        1620|  1.1014e+01|  1.1014e+01|   -7.966571|  2.4873e-05|    0.112110|
|        1630|  6.8194e+01|  6.8194e+01|   -7.959322|  2.4018e-05|    0.112121|
|        1640|  6.8194e+01|  6.8194e+01|   -7.936438|  2.3794e-05|    0.112154|
|        1650|  6.8194e+01|  6.8194e+01|   -7.920532|  2.4603e-05|    0.112185|
|        1660|  6.8194e+01|  6.8194e+01|   -7.910351|  2.4154e-05|    0.112224|
|        1670|  6.8194e+01|  6.8194e+01|   -7.906626|  2.4078e-05|    0.112260|
|        1680|  6.8194e+01|  6.8194e+01|   -7.911504|  2.3791e-05|    0.112295|
|        1690|  6.8194e+01|  6.8194e+01|   -7.924053|  2.3643e-05|    0.112329|
|        1700|  6.8194e+01|  6.8194e+01|   -7.943596|  2.3655e-05|    0.112366|
|        1710|  2.9322e+01|  2.9322e+01|   -7.958713|  2.2903e-05|    0.112380|
|        1720|  1.5130e+01|  1.5130e+01|   -7.971520|  2.2302e-05|    0.112398|
|        1730|  6.5054e+01|  6.5054e+01|   -7.985123|  2.1841e-05|    0.112419|
|        1740|  6.5054e+01|  6.5054e+01|   -8.020887|  2.1989e-05|    0.112455|
|        1750|  7.8065e+00|  7.8065e+00|   -8.061512|  2.2432e-05|    0.112488|
|        1760|  4.8336e+01|  4.8336e+01|   -8.076656|  2.2310e-05|    0.112498|
|        1770|  2.4940e+01|  2.4940e+01|   -8.095417|  2.2651e-05|    0.112515|
|        1780|  6.2059e+01|  6.2059e+01|   -8.124141|  2.2631e-05|    0.112545|
|        1790|  6.2059e+01|  6.2059e+01|   -8.169936|  2.2769e-05|    0.112579|
|        1800|  1.5442e+01|  1.5442e+01|   -8.201142|  2.2953e-05|    0.112599|
+-----------------------------------------------------------------------+
|        File Writing Summary       |              Filename             |
+-----------------------------------------------------------------------+
|SU2 binary restart                 |restart_flow_aoa145.dat            |
|Paraview                           |flow_aoa145.vtu                    |
|Paraview surface                   |surface_flow_aoa145.vtu            |
+-----------------------------------------------------------------------+
+-----------------------------------------------------------------------------+
|  Inner_Iter|     Min CFL|     Max CFL|      rms[P]|  Cauchy[CD]|          CD|
+-----------------------------------------------------------------------------+
|        1810|  7.9679e+00|  7.9679e+00|   -8.221596|  2.3011e-05|    0.112617|
|        1820|  4.9335e+01|  4.9335e+01|   -8.235223|  2.2956e-05|    0.112629|
|        1830|  5.9202e+01|  5.9202e+01|   -8.263714|  2.3135e-05|    0.112663|
|        1840|  5.9202e+01|  5.9202e+01|   -8.289744|  2.3157e-05|    0.112695|
|        1850|  5.9202e+01|  5.9202e+01|   -8.306963|  2.3158e-05|    0.112730|
|        1860|  5.9202e+01|  5.9202e+01|   -8.315447|  2.3787e-05|    0.112764|
|        1870|  5.9202e+01|  5.9202e+01|   -8.317366|  2.4401e-05|    0.112796|
|        1880|  5.9202e+01|  5.9202e+01|   -8.316945|  2.5124e-05|    0.112828|
|        1890|  5.9202e+01|  5.9202e+01|   -8.315941|  2.5094e-05|    0.112860|
|        1900|  5.9202e+01|  5.9202e+01|   -8.314626|  2.5084e-05|    0.112891|
|        1910|  5.9202e+01|  5.9202e+01|   -8.315248|  2.4822e-05|    0.112922|
|        1920|  7.1043e+00|  7.1043e+00|   -8.320040|  2.4521e-05|    0.112951|
|        1930|  4.3988e+01|  4.3988e+01|   -8.325668|  2.3607e-05|    0.112959|
|        1940|  2.2697e+01|  2.2697e+01|   -8.329060|  2.2817e-05|    0.112972|
|        1950|  5.6477e+01|  5.6477e+01|   -8.332651|  2.2306e-05|    0.112995|
|        1960|  5.6477e+01|  5.6477e+01|   -8.344965|  2.2809e-05|    0.113023|
|        1970|  5.6477e+01|  5.6477e+01|   -8.361196|  2.3171e-05|    0.113051|
|        1980|  5.6477e+01|  5.6477e+01|   -8.381894|  2.3440e-05|    0.113080|
|        1990|  9.7592e+00|  9.7592e+00|   -8.403986|  2.2881e-05|    0.113100|
|        2000|  6.0426e+01|  6.0426e+01|   -8.413853|  2.2113e-05|    0.113112|
+-----------------------------------------------------------------------+
|        File Writing Summary       |              Filename             |
+-----------------------------------------------------------------------+
|SU2 binary restart                 |restart_flow_aoa145.dat            |
|Paraview                           |flow_aoa145.vtu                    |
|Paraview surface                   |surface_flow_aoa145.vtu            |
+-----------------------------------------------------------------------+
+-----------------------------------------------------------------------------+
|  Inner_Iter|     Min CFL|     Max CFL|      rms[P]|  Cauchy[CD]|          CD|
+-----------------------------------------------------------------------------+
|        2010|  3.1179e+01|  3.1179e+01|   -8.424869|  2.2075e-05|    0.113121|
|        2020|  5.3877e+01|  5.3877e+01|   -8.445321|  2.2293e-05|    0.113144|
|        2030|  5.3877e+01|  5.3877e+01|   -8.477169|  2.2108e-05|    0.113168|
|        2040|  7.7583e+00|  7.7583e+00|   -8.510810|  2.1607e-05|    0.113189|
|        2050|  4.8037e+01|  4.8037e+01|   -8.523769|  2.1206e-05|    0.113198|
|        2060|  2.4786e+01|  2.4786e+01|   -8.539016|  2.0916e-05|    0.113208|
|        2070|  5.1396e+01|  5.1396e+01|   -8.564212|  2.1230e-05|    0.113228|
|        2080|  5.1396e+01|  5.1396e+01|   -8.599886|  2.0858e-05|    0.113252|
|        2090|  5.1396e+01|  5.1396e+01|   -8.633660|  2.0521e-05|    0.113275|
|        2100|  1.8416e+01|  1.8416e+01|   -8.652985|  1.9635e-05|    0.113285|
|        2110|  9.5024e+00|  9.5024e+00|   -8.668122|  1.8828e-05|    0.113296|
|        2120|  4.9030e+01|  4.9030e+01|   -8.678650|  1.8080e-05|    0.113307|
|        2130|  4.9030e+01|  4.9030e+01|   -8.697845|  1.7706e-05|    0.113328|
|        2140|  4.9030e+01|  4.9030e+01|   -8.712057|  1.7310e-05|    0.113349|
|        2150|  4.9030e+01|  4.9030e+01|   -8.719177|  1.6961e-05|    0.113371|
|        2160|  4.9030e+01|  4.9030e+01|   -8.721194|  1.6616e-05|    0.113392|
|        2170|  4.9030e+01|  4.9030e+01|   -8.718032|  1.6352e-05|    0.113413|
|        2180|  4.9030e+01|  4.9030e+01|   -8.711142|  1.6771e-05|    0.113434|
|        2190|  4.9030e+01|  4.9030e+01|   -8.702597|  1.7051e-05|    0.113455|
|        2200|  4.9030e+01|  4.9030e+01|   -8.694892|  1.6971e-05|    0.113475|
+-----------------------------------------------------------------------+
|        File Writing Summary       |              Filename             |
+-----------------------------------------------------------------------+
|SU2 binary restart                 |restart_flow_aoa145.dat            |
|Paraview                           |flow_aoa145.vtu                    |
|Paraview surface                   |surface_flow_aoa145.vtu            |
+-----------------------------------------------------------------------+
+-----------------------------------------------------------------------------+
|  Inner_Iter|     Min CFL|     Max CFL|      rms[P]|  Cauchy[CD]|          CD|
+-----------------------------------------------------------------------------+
|        2210|  5.8836e+00|  5.8836e+00|   -8.689584|  1.6646e-05|    0.113494|
|        2220|  3.6430e+01|  3.6430e+01|   -8.692425|  1.5866e-05|    0.113500|
|        2230|  1.8797e+01|  1.8797e+01|   -8.690656|  1.5136e-05|    0.113508|
|        2240|  4.6773e+01|  4.6773e+01|   -8.685824|  1.4948e-05|    0.113524|
|        2250|  4.6773e+01|  4.6773e+01|   -8.684362|  1.5232e-05|    0.113543|
|        2260|  4.6773e+01|  4.6773e+01|   -8.684596|  1.5583e-05|    0.113562|
|        2270|  4.6773e+01|  4.6773e+01|   -8.687063|  1.5453e-05|    0.113582|
|        2280|  4.6773e+01|  4.6773e+01|   -8.692477|  1.5265e-05|    0.113601|
|        2290|  4.6773e+01|  4.6773e+01|   -8.698901|  1.5224e-05|    0.113620|
|        2300|  6.7353e+00|  6.7353e+00|   -8.706809|  1.5463e-05|    0.113636|
|        2310|  4.1703e+01|  4.1703e+01|   -8.711396|  1.5368e-05|    0.113643|
|        2320|  2.1518e+01|  2.1518e+01|   -8.714802|  1.4885e-05|    0.113651|
|        2330|  4.4620e+01|  4.4620e+01|   -8.718602|  1.4601e-05|    0.113666|
|        2340|  4.4620e+01|  4.4620e+01|   -8.728740|  1.4429e-05|    0.113684|
|        2350|  4.4620e+01|  4.4620e+01|   -8.739745|  1.4706e-05|    0.113702|
|        2360|  4.4620e+01|  4.4620e+01|   -8.750595|  1.4954e-05|    0.113720|
|        2370|  1.3323e+01|  1.3323e+01|   -8.759471|  1.4899e-05|    0.113729|
|        2380|  6.8746e+00|  6.8746e+00|   -8.765325|  1.4469e-05|    0.113739|
|        2390|  4.2565e+01|  4.2565e+01|   -8.770276|  1.3984e-05|    0.113746|
|        2400|  4.2565e+01|  4.2565e+01|   -8.777955|  1.3829e-05|    0.113763|
+-----------------------------------------------------------------------+
|        File Writing Summary       |              Filename             |
+-----------------------------------------------------------------------+
|SU2 binary restart                 |restart_flow_aoa145.dat            |
|Paraview                           |flow_aoa145.vtu                    |
|Paraview surface                   |surface_flow_aoa145.vtu            |
+-----------------------------------------------------------------------+
+-----------------------------------------------------------------------------+
|  Inner_Iter|     Min CFL|     Max CFL|      rms[P]|  Cauchy[CD]|          CD|
+-----------------------------------------------------------------------------+
|        2410|  4.2565e+01|  4.2565e+01|   -8.789353|  1.3673e-05|    0.113781|
|        2420|  4.2565e+01|  4.2565e+01|   -8.800316|  1.3534e-05|    0.113798|
|        2430|  4.2565e+01|  4.2565e+01|   -8.810466|  1.3413e-05|    0.113815|
|        2440|  4.2565e+01|  4.2565e+01|   -8.820342|  1.3289e-05|    0.113832|
|        2450|  1.8302e+01|  1.8302e+01|   -8.827160|  1.2783e-05|    0.113838|
|        2460|  9.4436e+00|  9.4436e+00|   -8.831411|  1.2418e-05|    0.113847|
|        2470|  4.0606e+01|  4.0606e+01|   -8.834377|  1.2535e-05|    0.113856|
|        2480|  4.0606e+01|  4.0606e+01|   -8.840780|  1.2820e-05|    0.113873|
|        2490|  4.0606e+01|  4.0606e+01|   -8.848546|  1.2853e-05|    0.113889|
|        2500|  4.0606e+01|  4.0606e+01|   -8.855480|  1.2738e-05|    0.113905|
|        2510|  4.0606e+01|  4.0606e+01|   -8.861384|  1.2632e-05|    0.113921|
|        2520|  4.0606e+01|  4.0606e+01|   -8.867154|  1.2515e-05|    0.113938|
|        2530|  4.0606e+01|  4.0606e+01|   -8.872666|  1.2404e-05|    0.113954|
|        2540|  4.0606e+01|  4.0606e+01|   -8.877979|  1.2297e-05|    0.113970|
|        2550|  4.0606e+01|  4.0606e+01|   -8.883323|  1.2311e-05|    0.113987|
|        2560|  4.0606e+01|  4.0606e+01|   -8.888363|  1.2629e-05|    0.114003|
|        2570|  4.0606e+01|  4.0606e+01|   -8.893073|  1.2935e-05|    0.114019|
|        2580|  4.0606e+01|  4.0606e+01|   -8.897937|  1.2947e-05|    0.114035|
|        2590|  4.0606e+01|  4.0606e+01|   -8.903377|  1.2871e-05|    0.114050|
|        2600|  4.0606e+01|  4.0606e+01|   -8.909410|  1.2803e-05|    0.114066|
+-----------------------------------------------------------------------+
|        File Writing Summary       |              Filename             |
+-----------------------------------------------------------------------+
|SU2 binary restart                 |restart_flow_aoa145.dat            |
|Paraview                           |flow_aoa145.vtu                    |
|Paraview surface                   |surface_flow_aoa145.vtu            |
+-----------------------------------------------------------------------+
+-----------------------------------------------------------------------------+
|  Inner_Iter|     Min CFL|     Max CFL|      rms[P]|  Cauchy[CD]|          CD|
+-----------------------------------------------------------------------------+
|        2610|  4.0606e+01|  4.0606e+01|   -8.915841|  1.2719e-05|    0.114082|
|        2620|  4.0606e+01|  4.0606e+01|   -8.922500|  1.2951e-05|    0.114098|
|        2630|  4.0606e+01|  4.0606e+01|   -8.929429|  1.3174e-05|    0.114114|
|        2640|  4.0606e+01|  4.0606e+01|   -8.936877|  1.3466e-05|    0.114130|
|        2650|  5.8472e+00|  5.8472e+00|   -8.945815|  1.3306e-05|    0.114143|
|        2660|  3.6205e+01|  3.6205e+01|   -8.950319|  1.2906e-05|    0.114148|
|        2670|  1.8681e+01|  1.8681e+01|   -8.954031|  1.2511e-05|    0.114154|
|        2680|  3.8736e+01|  3.8736e+01|   -8.957106|  1.2349e-05|    0.114167|
|        2690|  3.8736e+01|  3.8736e+01|   -8.964946|  1.2264e-05|    0.114182|
|        2700|  3.8736e+01|  3.8736e+01|   -8.973074|  1.2557e-05|    0.114196|
|        2710|  3.8736e+01|  3.8736e+01|   -8.981424|  1.2778e-05|    0.114211|
|        2720|  3.8736e+01|  3.8736e+01|   -8.989817|  1.2956e-05|    0.114226|
|        2730|  3.8736e+01|  3.8736e+01|   -8.998235|  1.2890e-05|    0.114240|
|        2740|  3.8736e+01|  3.8736e+01|   -9.006145|  1.2828e-05|    0.114255|
|        2750|  3.8736e+01|  3.8736e+01|   -9.013369|  1.2769e-05|    0.114269|
|        2760|  3.8736e+01|  3.8736e+01|   -9.020299|  1.2706e-05|    0.114284|
|        2770|  3.8736e+01|  3.8736e+01|   -9.027128|  1.2639e-05|    0.114298|
|        2780|  3.8736e+01|  3.8736e+01|   -9.033539|  1.2567e-05|    0.114313|
|        2790|  3.8736e+01|  3.8736e+01|   -9.039311|  1.2492e-05|    0.114327|
|        2800|  3.8736e+01|  3.8736e+01|   -9.044505|  1.2419e-05|    0.114341|
+-----------------------------------------------------------------------+
|        File Writing Summary       |              Filename             |
+-----------------------------------------------------------------------+
|SU2 binary restart                 |restart_flow_aoa145.dat            |
|Paraview                           |flow_aoa145.vtu                    |
|Paraview surface                   |surface_flow_aoa145.vtu            |
+-----------------------------------------------------------------------+
+-----------------------------------------------------------------------------+
|  Inner_Iter|     Min CFL|     Max CFL|      rms[P]|  Cauchy[CD]|          CD|
+-----------------------------------------------------------------------------+
|        2810|  3.8736e+01|  3.8736e+01|   -9.049130|  1.2350e-05|    0.114355|
|        2820|  3.8736e+01|  3.8736e+01|   -9.053266|  1.2286e-05|    0.114369|
|        2830|  3.8736e+01|  3.8736e+01|   -9.056981|  1.2223e-05|    0.114384|
|        2840|  3.8736e+01|  3.8736e+01|   -9.060236|  1.2155e-05|    0.114398|
|        2850|  3.8736e+01|  3.8736e+01|   -9.063105|  1.2082e-05|    0.114412|
|        2860|  3.8736e+01|  3.8736e+01|   -9.065694|  1.2009e-05|    0.114425|
|        2870|  3.8736e+01|  3.8736e+01|   -9.068033|  1.1937e-05|    0.114439|
|        2880|  3.8736e+01|  3.8736e+01|   -9.070158|  1.1868e-05|    0.114453|
|        2890|  3.8736e+01|  3.8736e+01|   -9.072150|  1.1801e-05|    0.114467|
|        2900|  3.8736e+01|  3.8736e+01|   -9.074089|  1.1832e-05|    0.114481|
|        2910|  3.8736e+01|  3.8736e+01|   -9.075973|  1.2104e-05|    0.114494|
|        2920|  3.8736e+01|  3.8736e+01|   -9.077757|  1.2376e-05|    0.114508|
|        2930|  3.8736e+01|  3.8736e+01|   -9.079464|  1.2409e-05|    0.114522|
|        2940|  6.6937e+00|  6.6937e+00|   -9.082821|  1.2239e-05|    0.114532|
|        2950|  4.1445e+01|  4.1445e+01|   -9.084802|  1.1936e-05|    0.114538|
|        2960|  2.1385e+01|  2.1385e+01|   -9.086256|  1.1579e-05|    0.114542|
|        2970|  3.6953e+01|  3.6953e+01|   -9.084377|  1.1468e-05|    0.114554|
|        2980|  3.6953e+01|  3.6953e+01|   -9.086248|  1.1402e-05|    0.114566|
|        2990|  3.6953e+01|  3.6953e+01|   -9.088660|  1.1336e-05|    0.114579|
|        3000|  3.6953e+01|  3.6953e+01|   -9.090970|  1.1271e-05|    0.114592|
+-----------------------------------------------------------------------+
|        File Writing Summary       |              Filename             |
+-----------------------------------------------------------------------+
|SU2 binary restart                 |restart_flow_aoa145.dat            |
|Paraview                           |flow_aoa145.vtu                    |
|Paraview surface                   |surface_flow_aoa145.vtu            |
+-----------------------------------------------------------------------+
+-----------------------------------------------------------------------------+
|  Inner_Iter|     Min CFL|     Max CFL|      rms[P]|  Cauchy[CD]|          CD|
+-----------------------------------------------------------------------------+
|        3010|  3.6953e+01|  3.6953e+01|   -9.093310|  1.1209e-05|    0.114605|
|        3020|  3.6953e+01|  3.6953e+01|   -9.096113|  1.1147e-05|    0.114617|
|        3030|  3.6953e+01|  3.6953e+01|   -9.098825|  1.1088e-05|    0.114630|
|        3040|  3.6953e+01|  3.6953e+01|   -9.101494|  1.1030e-05|    0.114642|
|        3050|  3.6953e+01|  3.6953e+01|   -9.104400|  1.0969e-05|    0.114655|
|        3060|  3.6953e+01|  3.6953e+01|   -9.107576|  1.0907e-05|    0.114667|
|        3070|  3.6953e+01|  3.6953e+01|   -9.110885|  1.0844e-05|    0.114680|
|        3080|  3.6953e+01|  3.6953e+01|   -9.114262|  1.0781e-05|    0.114692|
|        3090|  3.6953e+01|  3.6953e+01|   -9.117750|  1.0720e-05|    0.114705|
|        3100|  3.6953e+01|  3.6953e+01|   -9.121372|  1.0662e-05|    0.114717|
|        3110|  3.6953e+01|  3.6953e+01|   -9.125082|  1.0605e-05|    0.114729|
|        3120|  3.6953e+01|  3.6953e+01|   -9.128888|  1.0547e-05|    0.114741|
|        3130|  3.6953e+01|  3.6953e+01|   -9.132743|  1.0488e-05|    0.114754|
|        3140|  3.6953e+01|  3.6953e+01|   -9.136585|  1.0429e-05|    0.114766|
|        3150|  3.6953e+01|  3.6953e+01|   -9.140438|  1.0370e-05|    0.114778|
|        3160|  3.6953e+01|  3.6953e+01|   -9.144333|  1.0311e-05|    0.114790|
|        3170|  3.6953e+01|  3.6953e+01|   -9.148254|  1.0253e-05|    0.114802|
|        3180|  3.6953e+01|  3.6953e+01|   -9.152178|  1.0195e-05|    0.114814|
|        3190|  3.6953e+01|  3.6953e+01|   -9.156118|  1.0263e-05|    0.114826|
|        3200|  3.6953e+01|  3.6953e+01|   -9.160090|  1.0463e-05|    0.114838|
+-----------------------------------------------------------------------+
|        File Writing Summary       |              Filename             |
+-----------------------------------------------------------------------+
|SU2 binary restart                 |restart_flow_aoa145.dat            |
|Paraview                           |flow_aoa145.vtu                    |
|Paraview surface                   |surface_flow_aoa145.vtu            |
+-----------------------------------------------------------------------+
+-----------------------------------------------------------------------------+
|  Inner_Iter|     Min CFL|     Max CFL|      rms[P]|  Cauchy[CD]|          CD|
+-----------------------------------------------------------------------------+
|        3210|  3.6953e+01|  3.6953e+01|   -9.164062|  1.0718e-05|    0.114849|
|        3220|  3.6953e+01|  3.6953e+01|   -9.167978|  1.0724e-05|    0.114861|
|        3230|  3.6953e+01|  3.6953e+01|   -9.171812|  1.0686e-05|    0.114873|
|        3240|  3.6953e+01|  3.6953e+01|   -9.175593|  1.0647e-05|    0.114885|
|        3250|  3.6953e+01|  3.6953e+01|   -9.179374|  1.0608e-05|    0.114896|
|        3260|  3.6953e+01|  3.6953e+01|   -9.183190|  1.0568e-05|    0.114908|
|        3270|  3.6953e+01|  3.6953e+01|   -9.187036|  1.0527e-05|    0.114919|
|        3280|  3.6953e+01|  3.6953e+01|   -9.190883|  1.0486e-05|    0.114931|
|        3290|  3.6953e+01|  3.6953e+01|   -9.194693|  1.0445e-05|    0.114942|
|        3300|  3.6953e+01|  3.6953e+01|   -9.198437|  1.0404e-05|    0.114954|
|        3310|  3.6953e+01|  3.6953e+01|   -9.202108|  1.0363e-05|    0.114965|
|        3320|  3.6953e+01|  3.6953e+01|   -9.205727|  1.0323e-05|    0.114976|
|        3330|  3.6953e+01|  3.6953e+01|   -9.209321|  1.0284e-05|    0.114987|
|        3340|  3.6953e+01|  3.6953e+01|   -9.212915|  1.0243e-05|    0.114999|
|        3350|  3.6953e+01|  3.6953e+01|   -9.216514|  1.0201e-05|    0.115010|
|        3360|  3.6953e+01|  3.6953e+01|   -9.220109|  1.0157e-05|    0.115021|
|        3370|  3.6953e+01|  3.6953e+01|   -9.223688|  1.0114e-05|    0.115032|
|        3380|  3.6953e+01|  3.6953e+01|   -9.227239|  1.0072e-05|    0.115043|
|        3390|  3.6953e+01|  3.6953e+01|   -9.230757|  1.0029e-05|    0.115054|
|        3400|  3.6953e+01|  3.6953e+01|   -9.234241|  9.9858e-06|    0.115065|
+-----------------------------------------------------------------------+
|        File Writing Summary       |              Filename             |
+-----------------------------------------------------------------------+
|SU2 binary restart                 |restart_flow_aoa145.dat            |
|Paraview                           |flow_aoa145.vtu                    |
|Paraview surface                   |surface_flow_aoa145.vtu            |
+-----------------------------------------------------------------------+
+-----------------------------------------------------------------------------+
|  Inner_Iter|     Min CFL|     Max CFL|      rms[P]|  Cauchy[CD]|          CD|
+-----------------------------------------------------------------------------+
|        3410|  3.6953e+01|  3.6953e+01|   -9.237691|  9.9432e-06|    0.115076|
|        3420|  3.6953e+01|  3.6953e+01|   -9.241111|  9.9002e-06|    0.115086|
|        3430|  3.6953e+01|  3.6953e+01|   -9.244509|  9.8564e-06|    0.115097|
|        3440|  3.6953e+01|  3.6953e+01|   -9.247889|  9.8121e-06|    0.115108|
|        3450|  3.6953e+01|  3.6953e+01|   -9.251255|  9.7681e-06|    0.115118|
|        3460|  3.6953e+01|  3.6953e+01|   -9.254604|  9.7244e-06|    0.115129|
|        3470|  3.6953e+01|  3.6953e+01|   -9.257934|  9.6808e-06|    0.115140|
|        3480|  3.6953e+01|  3.6953e+01|   -9.261241|  9.6371e-06|    0.115150|
|        3490|  3.6953e+01|  3.6953e+01|   -9.264523|  9.5934e-06|    0.115160|
|        3500|  3.6953e+01|  3.6953e+01|   -9.267776|  9.5498e-06|    0.115171|
|        3510|  3.6953e+01|  3.6953e+01|   -9.271002|  9.5061e-06|    0.115181|
|        3520|  3.6953e+01|  3.6953e+01|   -9.274201|  9.4623e-06|    0.115191|
|        3530|  3.6953e+01|  3.6953e+01|   -9.277373|  9.4186e-06|    0.115202|
|        3540|  3.6953e+01|  3.6953e+01|   -9.280515|  9.3749e-06|    0.115212|
|        3550|  3.6953e+01|  3.6953e+01|   -9.283627|  9.3314e-06|    0.115222|
|        3560|  3.6953e+01|  3.6953e+01|   -9.286708|  9.2880e-06|    0.115232|
|        3570|  3.6953e+01|  3.6953e+01|   -9.289760|  9.2447e-06|    0.115242|
|        3580|  3.6953e+01|  3.6953e+01|   -9.292787|  9.2014e-06|    0.115252|
|        3590|  3.6953e+01|  3.6953e+01|   -9.295790|  9.1584e-06|    0.115262|
|        3600|  3.6953e+01|  3.6953e+01|   -9.298767|  9.1155e-06|    0.115272|
+-----------------------------------------------------------------------+
|        File Writing Summary       |              Filename             |
+-----------------------------------------------------------------------+
|SU2 binary restart                 |restart_flow_aoa145.dat            |
|Paraview                           |flow_aoa145.vtu                    |
|Paraview surface                   |surface_flow_aoa145.vtu            |
+-----------------------------------------------------------------------+
+-----------------------------------------------------------------------------+
|  Inner_Iter|     Min CFL|     Max CFL|      rms[P]|  Cauchy[CD]|          CD|
+-----------------------------------------------------------------------------+
|        3610|  3.6953e+01|  3.6953e+01|   -9.301716|  9.0727e-06|    0.115282|
|        3620|  3.6953e+01|  3.6953e+01|   -9.304635|  9.0300e-06|    0.115292|
|        3630|  3.6953e+01|  3.6953e+01|   -9.307524|  8.9873e-06|    0.115302|
|        3640|  3.6953e+01|  3.6953e+01|   -9.310388|  8.9449e-06|    0.115311|
|        3650|  3.6953e+01|  3.6953e+01|   -9.313231|  8.9026e-06|    0.115321|
|        3660|  3.6953e+01|  3.6953e+01|   -9.316055|  8.8605e-06|    0.115331|
|        3670|  3.6953e+01|  3.6953e+01|   -9.318864|  8.8185e-06|    0.115340|
|        3680|  3.6953e+01|  3.6953e+01|   -9.321660|  8.7767e-06|    0.115350|
|        3690|  3.6953e+01|  3.6953e+01|   -9.324443|  8.7351e-06|    0.115359|
|        3700|  3.6953e+01|  3.6953e+01|   -9.327213|  8.6938e-06|    0.115369|
|        3710|  3.6953e+01|  3.6953e+01|   -9.329971|  8.6526e-06|    0.115378|
|        3720|  3.6953e+01|  3.6953e+01|   -9.332719|  8.6115e-06|    0.115388|
|        3730|  3.6953e+01|  3.6953e+01|   -9.335459|  8.5707e-06|    0.115397|
|        3740|  3.6953e+01|  3.6953e+01|   -9.338193|  8.5300e-06|    0.115406|
|        3750|  3.6953e+01|  3.6953e+01|   -9.340923|  8.4894e-06|    0.115416|
|        3760|  3.6953e+01|  3.6953e+01|   -9.343649|  8.4490e-06|    0.115425|
|        3770|  3.6953e+01|  3.6953e+01|   -9.346372|  8.4086e-06|    0.115434|
|        3780|  3.6953e+01|  3.6953e+01|   -9.349092|  8.3683e-06|    0.115443|
|        3790|  3.6953e+01|  3.6953e+01|   -9.351810|  8.3281e-06|    0.115452|
|        3800|  3.6953e+01|  3.6953e+01|   -9.354524|  8.2880e-06|    0.115461|
+-----------------------------------------------------------------------+
|        File Writing Summary       |              Filename             |
+-----------------------------------------------------------------------+
|SU2 binary restart                 |restart_flow_aoa145.dat            |
|Paraview                           |flow_aoa145.vtu                    |
|Paraview surface                   |surface_flow_aoa145.vtu            |
+-----------------------------------------------------------------------+
+-----------------------------------------------------------------------------+
|  Inner_Iter|     Min CFL|     Max CFL|      rms[P]|  Cauchy[CD]|          CD|
+-----------------------------------------------------------------------------+
|        3810|  3.6953e+01|  3.6953e+01|   -9.357237|  8.2480e-06|    0.115470|
|        3820|  3.6953e+01|  3.6953e+01|   -9.359949|  8.2081e-06|    0.115479|
|        3830|  3.6953e+01|  3.6953e+01|   -9.362660|  8.1682e-06|    0.115488|
|        3840|  3.6953e+01|  3.6953e+01|   -9.365370|  8.1284e-06|    0.115497|
|        3850|  3.6953e+01|  3.6953e+01|   -9.368080|  8.0888e-06|    0.115506|
|        3860|  3.6953e+01|  3.6953e+01|   -9.370790|  8.0492e-06|    0.115514|
|        3870|  3.6953e+01|  3.6953e+01|   -9.373500|  8.0099e-06|    0.115523|
|        3880|  3.6953e+01|  3.6953e+01|   -9.376211|  7.9707e-06|    0.115532|
|        3890|  3.6953e+01|  3.6953e+01|   -9.378922|  7.9317e-06|    0.115540|
|        3900|  3.6953e+01|  3.6953e+01|   -9.381632|  7.8928e-06|    0.115549|
|        3910|  3.6953e+01|  3.6953e+01|   -9.384342|  7.8541e-06|    0.115557|
|        3920|  3.6953e+01|  3.6953e+01|   -9.387053|  7.8155e-06|    0.115566|
|        3930|  3.6953e+01|  3.6953e+01|   -9.389768|  7.7771e-06|    0.115574|
|        3940|  3.6953e+01|  3.6953e+01|   -9.393144|  7.7390e-06|    0.115583|
|        3950|  3.6953e+01|  3.6953e+01|   -9.396155|  7.7027e-06|    0.115591|
|        3960|  3.6953e+01|  3.6953e+01|   -9.399143|  7.6665e-06|    0.115600|
|        3970|  3.6953e+01|  3.6953e+01|   -9.402026|  7.6302e-06|    0.115608|
|        3980|  3.6953e+01|  3.6953e+01|   -9.404717|  7.5938e-06|    0.115616|
|        3990|  3.6953e+01|  3.6953e+01|   -9.407266|  7.5576e-06|    0.115625|
|        4000|  3.6953e+01|  3.6953e+01|   -9.409739|  7.5215e-06|    0.115633|
+-----------------------------------------------------------------------+
|        File Writing Summary       |              Filename             |
+-----------------------------------------------------------------------+
|SU2 binary restart                 |restart_flow_aoa145.dat            |
|Paraview                           |flow_aoa145.vtu                    |
|Paraview surface                   |surface_flow_aoa145.vtu            |
+-----------------------------------------------------------------------+
+-----------------------------------------------------------------------------+
|  Inner_Iter|     Min CFL|     Max CFL|      rms[P]|  Cauchy[CD]|          CD|
+-----------------------------------------------------------------------------+
|        4010|  3.6953e+01|  3.6953e+01|   -9.412216|  7.4855e-06|    0.115641|
|        4020|  3.6953e+01|  3.6953e+01|   -9.414808|  7.4495e-06|    0.115649|
|        4030|  3.6953e+01|  3.6953e+01|   -9.417552|  7.4138e-06|    0.115657|
|        4040|  3.6953e+01|  3.6953e+01|   -9.420398|  7.3782e-06|    0.115665|
|        4050|  3.6953e+01|  3.6953e+01|   -9.423287|  7.3428e-06|    0.115673|
|        4060|  3.6953e+01|  3.6953e+01|   -9.426171|  7.3076e-06|    0.115681|
|        4070|  3.6953e+01|  3.6953e+01|   -9.429000|  7.2724e-06|    0.115689|
|        4080|  3.6953e+01|  3.6953e+01|   -9.431762|  7.2374e-06|    0.115697|
|        4090|  3.6953e+01|  3.6953e+01|   -9.434476|  7.2025e-06|    0.115705|
|        4100|  3.6953e+01|  3.6953e+01|   -9.437167|  7.1678e-06|    0.115713|
|        4110|  3.6953e+01|  3.6953e+01|   -9.439853|  7.1333e-06|    0.115720|
|        4120|  3.6953e+01|  3.6953e+01|   -9.442547|  7.0990e-06|    0.115728|
|        4130|  3.6953e+01|  3.6953e+01|   -9.445258|  7.0648e-06|    0.115736|
|        4140|  3.6953e+01|  3.6953e+01|   -9.447977|  7.0307e-06|    0.115744|
|        4150|  3.6953e+01|  3.6953e+01|   -9.450689|  6.9968e-06|    0.115751|
|        4160|  3.6953e+01|  3.6953e+01|   -9.453383|  6.9630e-06|    0.115759|
|        4170|  3.6953e+01|  3.6953e+01|   -9.456059|  6.9295e-06|    0.115766|
|        4180|  3.6953e+01|  3.6953e+01|   -9.458720|  6.8960e-06|    0.115774|
|        4190|  3.6953e+01|  3.6953e+01|   -9.461378|  6.8624e-06|    0.115781|
|        4200|  3.6953e+01|  3.6953e+01|   -9.464042|  6.8275e-06|    0.115789|
+-----------------------------------------------------------------------+
|        File Writing Summary       |              Filename             |
+-----------------------------------------------------------------------+
|SU2 binary restart                 |restart_flow_aoa145.dat            |
|Paraview                           |flow_aoa145.vtu                    |
|Paraview surface                   |surface_flow_aoa145.vtu            |
+-----------------------------------------------------------------------+
+-----------------------------------------------------------------------------+
|  Inner_Iter|     Min CFL|     Max CFL|      rms[P]|  Cauchy[CD]|          CD|
+-----------------------------------------------------------------------------+
|        4210|  3.6953e+01|  3.6953e+01|   -9.466715|  6.7926e-06|    0.115796|
|        4220|  3.6953e+01|  3.6953e+01|   -9.469390|  6.7582e-06|    0.115803|
|        4230|  3.6953e+01|  3.6953e+01|   -9.472057|  6.7241e-06|    0.115811|
|        4240|  3.6953e+01|  3.6953e+01|   -9.474711|  6.6902e-06|    0.115818|
|        4250|  3.6953e+01|  3.6953e+01|   -9.477347|  6.6564e-06|    0.115825|
|        4260|  3.6953e+01|  3.6953e+01|   -9.479966|  6.6228e-06|    0.115833|
|        4270|  3.6953e+01|  3.6953e+01|   -9.482570|  6.5895e-06|    0.115840|
|        4280|  3.6953e+01|  3.6953e+01|   -9.485162|  6.5563e-06|    0.115847|
|        4290|  3.6953e+01|  3.6953e+01|   -9.487747|  6.5232e-06|    0.115854|
|        4300|  3.6953e+01|  3.6953e+01|   -9.490327|  6.4903e-06|    0.115861|
|        4310|  3.6953e+01|  3.6953e+01|   -9.492900|  6.4577e-06|    0.115868|
|        4320|  3.6953e+01|  3.6953e+01|   -9.495464|  6.4252e-06|    0.115875|
|        4330|  3.6953e+01|  3.6953e+01|   -9.498017|  6.3930e-06|    0.115882|
|        4340|  3.6953e+01|  3.6953e+01|   -9.500560|  6.3610e-06|    0.115889|
|        4350|  3.6953e+01|  3.6953e+01|   -9.503094|  6.3291e-06|    0.115896|
|        4360|  3.6953e+01|  3.6953e+01|   -9.505622|  6.2973e-06|    0.115903|
|        4370|  3.6953e+01|  3.6953e+01|   -9.508147|  6.2657e-06|    0.115910|
|        4380|  3.6953e+01|  3.6953e+01|   -9.510668|  6.2343e-06|    0.115916|
|        4390|  3.6953e+01|  3.6953e+01|   -9.513187|  6.2029e-06|    0.115923|
|        4400|  3.6953e+01|  3.6953e+01|   -9.515703|  6.1718e-06|    0.115930|
+-----------------------------------------------------------------------+
|        File Writing Summary       |              Filename             |
+-----------------------------------------------------------------------+
|SU2 binary restart                 |restart_flow_aoa145.dat            |
|Paraview                           |flow_aoa145.vtu                    |
|Paraview surface                   |surface_flow_aoa145.vtu            |
+-----------------------------------------------------------------------+
+-----------------------------------------------------------------------------+
|  Inner_Iter|     Min CFL|     Max CFL|      rms[P]|  Cauchy[CD]|          CD|
+-----------------------------------------------------------------------------+
|        4410|  3.6953e+01|  3.6953e+01|   -9.518217|  6.1407e-06|    0.115937|
|        4420|  3.6953e+01|  3.6953e+01|   -9.520728|  6.1098e-06|    0.115943|
|        4430|  3.6953e+01|  3.6953e+01|   -9.523236|  6.0790e-06|    0.115950|
|        4440|  3.6953e+01|  3.6953e+01|   -9.525744|  6.0483e-06|    0.115956|
|        4450|  3.6953e+01|  3.6953e+01|   -9.528252|  6.0178e-06|    0.115963|
|        4460|  3.6953e+01|  3.6953e+01|   -9.530760|  5.9874e-06|    0.115970|
|        4470|  3.6953e+01|  3.6953e+01|   -9.533269|  5.9571e-06|    0.115976|
|        4480|  3.6953e+01|  3.6953e+01|   -9.535778|  5.9269e-06|    0.115983|
|        4490|  3.6953e+01|  3.6953e+01|   -9.538285|  5.8968e-06|    0.115989|
|        4500|  3.6953e+01|  3.6953e+01|   -9.540790|  5.8669e-06|    0.115995|
|        4510|  3.6953e+01|  3.6953e+01|   -9.543295|  5.8370e-06|    0.116002|
|        4520|  3.6953e+01|  3.6953e+01|   -9.545802|  5.8073e-06|    0.116008|
|        4530|  3.6953e+01|  3.6953e+01|   -9.548312|  5.7777e-06|    0.116014|
|        4540|  3.6953e+01|  3.6953e+01|   -9.550823|  5.7482e-06|    0.116021|
|        4550|  3.6953e+01|  3.6953e+01|   -9.553336|  5.7189e-06|    0.116027|
|        4560|  3.6953e+01|  3.6953e+01|   -9.555848|  5.6897e-06|    0.116033|
|        4570|  3.6953e+01|  3.6953e+01|   -9.558358|  5.6606e-06|    0.116039|
|        4580|  3.6953e+01|  3.6953e+01|   -9.560865|  5.6316e-06|    0.116045|
|        4590|  3.6953e+01|  3.6953e+01|   -9.563370|  5.6027e-06|    0.116051|
|        4600|  3.6953e+01|  3.6953e+01|   -9.565874|  5.5739e-06|    0.116058|
+-----------------------------------------------------------------------+
|        File Writing Summary       |              Filename             |
+-----------------------------------------------------------------------+
|SU2 binary restart                 |restart_flow_aoa145.dat            |
|Paraview                           |flow_aoa145.vtu                    |
|Paraview surface                   |surface_flow_aoa145.vtu            |
+-----------------------------------------------------------------------+
+-----------------------------------------------------------------------------+
|  Inner_Iter|     Min CFL|     Max CFL|      rms[P]|  Cauchy[CD]|          CD|
+-----------------------------------------------------------------------------+
|        4610|  3.6953e+01|  3.6953e+01|   -9.568379|  5.5452e-06|    0.116064|
|        4620|  3.6953e+01|  3.6953e+01|   -9.570885|  5.5167e-06|    0.116070|
|        4630|  3.6953e+01|  3.6953e+01|   -9.573394|  5.4884e-06|    0.116076|
|        4640|  3.6953e+01|  3.6953e+01|   -9.575905|  5.4601e-06|    0.116082|
|        4650|  3.6953e+01|  3.6953e+01|   -9.578419|  5.4320e-06|    0.116087|
|        4660|  3.6953e+01|  3.6953e+01|   -9.580935|  5.4041e-06|    0.116093|
|        4670|  3.6953e+01|  3.6953e+01|   -9.583453|  5.3763e-06|    0.116099|
|        4680|  3.6953e+01|  3.6953e+01|   -9.585972|  5.3486e-06|    0.116105|
|        4690|  3.6953e+01|  3.6953e+01|   -9.588494|  5.3210e-06|    0.116111|
|        4700|  3.6953e+01|  3.6953e+01|   -9.591016|  5.2936e-06|    0.116117|
|        4710|  3.6953e+01|  3.6953e+01|   -9.593539|  5.2662e-06|    0.116122|
|        4720|  3.6953e+01|  3.6953e+01|   -9.596061|  5.2391e-06|    0.116128|
|        4730|  3.6953e+01|  3.6953e+01|   -9.598579|  5.2120e-06|    0.116134|
|        4740|  3.6953e+01|  3.6953e+01|   -9.601094|  5.1852e-06|    0.116139|
|        4750|  3.6953e+01|  3.6953e+01|   -9.603605|  5.1584e-06|    0.116145|
|        4760|  3.6953e+01|  3.6953e+01|   -9.606112|  5.1318e-06|    0.116151|
|        4770|  3.6953e+01|  3.6953e+01|   -9.608616|  5.1054e-06|    0.116156|
|        4780|  3.6953e+01|  3.6953e+01|   -9.611117|  5.0790e-06|    0.116162|
|        4790|  3.6953e+01|  3.6953e+01|   -9.613616|  5.0528e-06|    0.116167|
|        4800|  3.6953e+01|  3.6953e+01|   -9.616112|  5.0267e-06|    0.116173|
+-----------------------------------------------------------------------+
|        File Writing Summary       |              Filename             |
+-----------------------------------------------------------------------+
|SU2 binary restart                 |restart_flow_aoa145.dat            |
|Paraview                           |flow_aoa145.vtu                    |
|Paraview surface                   |surface_flow_aoa145.vtu            |
+-----------------------------------------------------------------------+
+-----------------------------------------------------------------------------+
|  Inner_Iter|     Min CFL|     Max CFL|      rms[P]|  Cauchy[CD]|          CD|
+-----------------------------------------------------------------------------+
|        4810|  3.6953e+01|  3.6953e+01|   -9.618603|  5.0007e-06|    0.116178|
|        4820|  3.6953e+01|  3.6953e+01|   -9.621090|  4.9748e-06|    0.116184|
|        4830|  3.6953e+01|  3.6953e+01|   -9.623570|  4.9490e-06|    0.116189|
|        4840|  3.6953e+01|  3.6953e+01|   -9.626045|  4.9234e-06|    0.116194|
|        4850|  3.6953e+01|  3.6953e+01|   -9.628512|  4.8978e-06|    0.116200|
|        4860|  3.6953e+01|  3.6953e+01|   -9.630974|  4.8724e-06|    0.116205|
|        4870|  3.6953e+01|  3.6953e+01|   -9.633430|  4.8471e-06|    0.116210|
|        4880|  3.6953e+01|  3.6953e+01|   -9.635880|  4.8219e-06|    0.116216|
|        4890|  3.6953e+01|  3.6953e+01|   -9.638324|  4.7968e-06|    0.116221|
|        4900|  3.6953e+01|  3.6953e+01|   -9.640763|  4.7718e-06|    0.116226|
|        4910|  3.6953e+01|  3.6953e+01|   -9.643196|  4.7469e-06|    0.116231|
|        4920|  3.6953e+01|  3.6953e+01|   -9.645624|  4.7222e-06|    0.116236|
|        4930|  3.6953e+01|  3.6953e+01|   -9.648048|  4.6975e-06|    0.116241|
|        4940|  3.6953e+01|  3.6953e+01|   -9.650467|  4.6730e-06|    0.116247|
|        4950|  3.6953e+01|  3.6953e+01|   -9.652882|  4.6486e-06|    0.116252|
|        4960|  3.6953e+01|  3.6953e+01|   -9.655293|  4.6243e-06|    0.116257|
|        4970|  3.6953e+01|  3.6953e+01|   -9.657699|  4.6001e-06|    0.116262|
|        4980|  3.6953e+01|  3.6953e+01|   -9.660100|  4.5761e-06|    0.116267|
|        4990|  3.6953e+01|  3.6953e+01|   -9.662498|  4.5521e-06|    0.116272|
|        5000|  3.6953e+01|  3.6953e+01|   -9.664893|  4.5283e-06|    0.116277|
+-----------------------------------------------------------------------+
|        File Writing Summary       |              Filename             |
+-----------------------------------------------------------------------+
|SU2 binary restart                 |restart_flow_aoa145.dat            |
|Paraview                           |flow_aoa145.vtu                    |
|Paraview surface                   |surface_flow_aoa145.vtu            |
+-----------------------------------------------------------------------+
+-----------------------------------------------------------------------------+
|  Inner_Iter|     Min CFL|     Max CFL|      rms[P]|  Cauchy[CD]|          CD|
+-----------------------------------------------------------------------------+
|        5010|  3.6953e+01|  3.6953e+01|   -9.667285|  4.5046e-06|    0.116282|
|        5020|  3.6953e+01|  3.6953e+01|   -9.669674|  4.4810e-06|    0.116286|
|        5030|  3.6953e+01|  3.6953e+01|   -9.672059|  4.4576e-06|    0.116291|
|        5040|  3.6953e+01|  3.6953e+01|   -9.674442|  4.4342e-06|    0.116296|
|        5050|  3.6953e+01|  3.6953e+01|   -9.676821|  4.4110e-06|    0.116301|
|        5060|  3.6953e+01|  3.6953e+01|   -9.679199|  4.3879e-06|    0.116306|
|        5070|  3.6953e+01|  3.6953e+01|   -9.681577|  4.3650e-06|    0.116310|
|        5080|  3.6953e+01|  3.6953e+01|   -9.683953|  4.3421e-06|    0.116315|
|        5090|  3.6953e+01|  3.6953e+01|   -9.686327|  4.3194e-06|    0.116320|
|        5100|  3.6953e+01|  3.6953e+01|   -9.688699|  4.2968e-06|    0.116325|
|        5110|  3.6953e+01|  3.6953e+01|   -9.691067|  4.2744e-06|    0.116329|
|        5120|  3.6953e+01|  3.6953e+01|   -9.693433|  4.2521e-06|    0.116334|
|        5130|  3.6953e+01|  3.6953e+01|   -9.695798|  4.2299e-06|    0.116339|
|        5140|  3.6953e+01|  3.6953e+01|   -9.698163|  4.2078e-06|    0.116343|
|        5150|  3.6953e+01|  3.6953e+01|   -9.700527|  4.1859e-06|    0.116348|
|        5160|  3.6953e+01|  3.6953e+01|   -9.702892|  4.1641e-06|    0.116352|
|        5170|  3.6953e+01|  3.6953e+01|   -9.705256|  4.1424e-06|    0.116357|
|        5180|  3.6953e+01|  3.6953e+01|   -9.707620|  4.1208e-06|    0.116361|
|        5190|  3.6953e+01|  3.6953e+01|   -9.709983|  4.0993e-06|    0.116366|
|        5200|  3.6953e+01|  3.6953e+01|   -9.712346|  4.0780e-06|    0.116370|
+-----------------------------------------------------------------------+
|        File Writing Summary       |              Filename             |
+-----------------------------------------------------------------------+
|SU2 binary restart                 |restart_flow_aoa145.dat            |
|Paraview                           |flow_aoa145.vtu                    |
|Paraview surface                   |surface_flow_aoa145.vtu            |
+-----------------------------------------------------------------------+
+-----------------------------------------------------------------------------+
|  Inner_Iter|     Min CFL|     Max CFL|      rms[P]|  Cauchy[CD]|          CD|
+-----------------------------------------------------------------------------+
|        5210|  3.6953e+01|  3.6953e+01|   -9.714708|  4.0568e-06|    0.116375|
|        5220|  3.6953e+01|  3.6953e+01|   -9.717070|  4.0357e-06|    0.116379|
|        5230|  3.6953e+01|  3.6953e+01|   -9.719432|  4.0148e-06|    0.116383|
|        5240|  3.6953e+01|  3.6953e+01|   -9.721794|  3.9940e-06|    0.116388|
|        5250|  3.6953e+01|  3.6953e+01|   -9.724157|  3.9733e-06|    0.116392|
|        5260|  3.6953e+01|  3.6953e+01|   -9.726521|  3.9527e-06|    0.116396|
|        5270|  3.6953e+01|  3.6953e+01|   -9.728884|  3.9322e-06|    0.116401|
|        5280|  3.6953e+01|  3.6953e+01|   -9.731248|  3.9119e-06|    0.116405|
|        5290|  3.6953e+01|  3.6953e+01|   -9.733613|  3.8917e-06|    0.116409|
|        5300|  3.6953e+01|  3.6953e+01|   -9.735977|  3.8716e-06|    0.116414|
|        5310|  3.6953e+01|  3.6953e+01|   -9.738341|  3.8517e-06|    0.116418|
|        5320|  3.6953e+01|  3.6953e+01|   -9.740705|  3.8319e-06|    0.116422|
|        5330|  3.6953e+01|  3.6953e+01|   -9.743070|  3.8122e-06|    0.116426|
|        5340|  3.6953e+01|  3.6953e+01|   -9.745434|  3.7926e-06|    0.116430|
|        5350|  3.6953e+01|  3.6953e+01|   -9.747799|  3.7732e-06|    0.116434|
|        5360|  3.6953e+01|  3.6953e+01|   -9.750164|  3.7539e-06|    0.116439|
|        5370|  3.6953e+01|  3.6953e+01|   -9.752528|  3.7346e-06|    0.116443|
|        5380|  3.6953e+01|  3.6953e+01|   -9.754892|  3.7155e-06|    0.116447|
|        5390|  3.6953e+01|  3.6953e+01|   -9.757257|  3.6965e-06|    0.116451|
|        5400|  3.6953e+01|  3.6953e+01|   -9.759620|  3.6776e-06|    0.116455|
+-----------------------------------------------------------------------+
|        File Writing Summary       |              Filename             |
+-----------------------------------------------------------------------+
|SU2 binary restart                 |restart_flow_aoa145.dat            |
|Paraview                           |flow_aoa145.vtu                    |
|Paraview surface                   |surface_flow_aoa145.vtu            |
+-----------------------------------------------------------------------+
+-----------------------------------------------------------------------------+
|  Inner_Iter|     Min CFL|     Max CFL|      rms[P]|  Cauchy[CD]|          CD|
+-----------------------------------------------------------------------------+
|        5410|  3.6953e+01|  3.6953e+01|   -9.761983|  3.6588e-06|    0.116459|
|        5420|  3.6953e+01|  3.6953e+01|   -9.764346|  3.6401e-06|    0.116463|
|        5430|  3.6953e+01|  3.6953e+01|   -9.766706|  3.6215e-06|    0.116467|
|        5440|  3.6953e+01|  3.6953e+01|   -9.769067|  3.6030e-06|    0.116471|
|        5450|  3.6953e+01|  3.6953e+01|   -9.771428|  3.5846e-06|    0.116475|
|        5460|  3.6953e+01|  3.6953e+01|   -9.773790|  3.5663e-06|    0.116478|
|        5470|  3.6953e+01|  3.6953e+01|   -9.776153|  3.5481e-06|    0.116482|
|        5480|  3.6953e+01|  3.6953e+01|   -9.778517|  3.5299e-06|    0.116486|
|        5490|  3.6953e+01|  3.6953e+01|   -9.780881|  3.5119e-06|    0.116490|
|        5500|  3.6953e+01|  3.6953e+01|   -9.783244|  3.4939e-06|    0.116494|
|        5510|  3.6953e+01|  3.6953e+01|   -9.785607|  3.4761e-06|    0.116498|
|        5520|  3.6953e+01|  3.6953e+01|   -9.787969|  3.4583e-06|    0.116501|
|        5530|  3.6953e+01|  3.6953e+01|   -9.790330|  3.4406e-06|    0.116505|
|        5540|  3.6953e+01|  3.6953e+01|   -9.792690|  3.4230e-06|    0.116509|
|        5550|  3.6953e+01|  3.6953e+01|   -9.795050|  3.4055e-06|    0.116513|
|        5560|  3.6953e+01|  3.6953e+01|   -9.797411|  3.3880e-06|    0.116516|
|        5570|  3.6953e+01|  3.6953e+01|   -9.799772|  3.3706e-06|    0.116520|
|        5580|  3.6953e+01|  3.6953e+01|   -9.802135|  3.3533e-06|    0.116524|
|        5590|  3.6953e+01|  3.6953e+01|   -9.804499|  3.3361e-06|    0.116527|
|        5600|  3.6953e+01|  3.6953e+01|   -9.806864|  3.3190e-06|    0.116531|
+-----------------------------------------------------------------------+
|        File Writing Summary       |              Filename             |
+-----------------------------------------------------------------------+
|SU2 binary restart                 |restart_flow_aoa145.dat            |
|Paraview                           |flow_aoa145.vtu                    |
|Paraview surface                   |surface_flow_aoa145.vtu            |
+-----------------------------------------------------------------------+
+-----------------------------------------------------------------------------+
|  Inner_Iter|     Min CFL|     Max CFL|      rms[P]|  Cauchy[CD]|          CD|
+-----------------------------------------------------------------------------+
|        5610|  3.6953e+01|  3.6953e+01|   -9.809228|  3.3019e-06|    0.116535|
|        5620|  3.6953e+01|  3.6953e+01|   -9.811592|  3.2849e-06|    0.116538|
|        5630|  3.6953e+01|  3.6953e+01|   -9.813957|  3.2680e-06|    0.116542|
|        5640|  3.6953e+01|  3.6953e+01|   -9.816323|  3.2511e-06|    0.116545|
|        5650|  3.6953e+01|  3.6953e+01|   -9.818691|  3.2343e-06|    0.116549|
|        5660|  3.6953e+01|  3.6953e+01|   -9.821059|  3.2176e-06|    0.116552|
|        5670|  3.6953e+01|  3.6953e+01|   -9.823428|  3.2009e-06|    0.116556|
|        5680|  3.6953e+01|  3.6953e+01|   -9.825797|  3.1844e-06|    0.116559|
|        5690|  3.6953e+01|  3.6953e+01|   -9.828165|  3.1679e-06|    0.116563|
|        5700|  3.6953e+01|  3.6953e+01|   -9.830532|  3.1514e-06|    0.116566|
|        5710|  3.6953e+01|  3.6953e+01|   -9.832899|  3.1351e-06|    0.116570|
|        5720|  3.6953e+01|  3.6953e+01|   -9.835265|  3.1188e-06|    0.116573|
|        5730|  3.6953e+01|  3.6953e+01|   -9.837631|  3.1026e-06|    0.116577|
|        5740|  3.6953e+01|  3.6953e+01|   -9.839996|  3.0864e-06|    0.116580|
|        5750|  3.6953e+01|  3.6953e+01|   -9.842362|  3.0704e-06|    0.116583|
|        5760|  3.6953e+01|  3.6953e+01|   -9.844727|  3.0544e-06|    0.116587|
|        5770|  3.6953e+01|  3.6953e+01|   -9.847093|  3.0385e-06|    0.116590|
[...]
|        6400|  3.6953e+01|  3.6953e+01|   -9.992938|  2.1858e-06|    0.116768|
+-----------------------------------------------------------------------+
|        File Writing Summary       |              Filename             |
+-----------------------------------------------------------------------+
|SU2 binary restart                 |restart_flow_aoa145.dat            |
|Paraview                           |flow_aoa145.vtu                    |
|Paraview surface                   |surface_flow_aoa145.vtu            |
+-----------------------------------------------------------------------+
+-----------------------------------------------------------------------------+
|  Inner_Iter|     Min CFL|     Max CFL|      rms[P]|  Cauchy[CD]|          CD|
+-----------------------------------------------------------------------------+
|        6410|  3.6953e+01|  3.6953e+01|   -9.995240|  2.1744e-06|    0.116770|
|        6420|  3.6953e+01|  3.6953e+01|   -9.997542|  2.1630e-06|    0.116773|
|        6430|  3.6953e+01|  3.6953e+01|   -9.999845|  2.1518e-06|    0.116775|
|        6440|  3.6953e+01|  3.6953e+01|  -10.002149|  2.1406e-06|    0.116778|
|        6450|  3.6953e+01|  3.6953e+01|  -10.004452|  2.1294e-06|    0.116780|
|        6460|  3.6953e+01|  3.6953e+01|  -10.006755|  2.1183e-06|    0.116782|
|        6470|  3.6953e+01|  3.6953e+01|  -10.009059|  2.1073e-06|    0.116785|
|        6480|  3.6953e+01|  3.6953e+01|  -10.011363|  2.0963e-06|    0.116787|
|        6490|  3.6953e+01|  3.6953e+01|  -10.013666|  2.0854e-06|    0.116789|
|        6500|  3.6953e+01|  3.6953e+01|  -10.015970|  2.0745e-06|    0.116791|
|        6510|  3.6953e+01|  3.6953e+01|  -10.018273|  2.0637e-06|    0.116794|
|        6520|  3.6953e+01|  3.6953e+01|  -10.020576|  2.0530e-06|    0.116796|
|        6530|  3.6953e+01|  3.6953e+01|  -10.022878|  2.0423e-06|    0.116798|
|        6540|  3.6953e+01|  3.6953e+01|  -10.025180|  2.0317e-06|    0.116800|
|        6550|  3.6953e+01|  3.6953e+01|  -10.027481|  2.0211e-06|    0.116803|
|        6560|  3.6953e+01|  3.6953e+01|  -10.029781|  2.0106e-06|    0.116805|
|        6570|  3.6953e+01|  3.6953e+01|  -10.032080|  2.0001e-06|    0.116807|
|        6580|  3.6953e+01|  3.6953e+01|  -10.034379|  1.9897e-06|    0.116809|
|        6590|  3.6953e+01|  3.6953e+01|  -10.036676|  1.9794e-06|    0.116811|
|        6600|  3.6953e+01|  3.6953e+01|  -10.038972|  1.9691e-06|    0.116813|
+-----------------------------------------------------------------------+
|        File Writing Summary       |              Filename             |
+-----------------------------------------------------------------------+
|SU2 binary restart                 |restart_flow_aoa145.dat            |
|Paraview                           |flow_aoa145.vtu                    |
|Paraview surface                   |surface_flow_aoa145.vtu            |
+-----------------------------------------------------------------------+
+-----------------------------------------------------------------------------+
|  Inner_Iter|     Min CFL|     Max CFL|      rms[P]|  Cauchy[CD]|          CD|
+-----------------------------------------------------------------------------+
|        6610|  3.6953e+01|  3.6953e+01|  -10.041268|  1.9589e-06|    0.116816|
|        6620|  3.6953e+01|  3.6953e+01|  -10.043563|  1.9487e-06|    0.116818|
|        6630|  3.6953e+01|  3.6953e+01|  -10.045856|  1.9386e-06|    0.116820|
|        6640|  3.6953e+01|  3.6953e+01|  -10.048150|  1.9286e-06|    0.116822|
|        6650|  3.6953e+01|  3.6953e+01|  -10.050442|  1.9186e-06|    0.116824|
|        6660|  3.6953e+01|  3.6953e+01|  -10.052733|  1.9086e-06|    0.116826|
|        6670|  3.6953e+01|  3.6953e+01|  -10.055023|  1.8987e-06|    0.116828|
|        6680|  3.6953e+01|  3.6953e+01|  -10.057312|  1.8889e-06|    0.116830|
|        6690|  3.6953e+01|  3.6953e+01|  -10.059600|  1.8791e-06|    0.116832|
|        6700|  3.6953e+01|  3.6953e+01|  -10.061888|  1.8694e-06|    0.116834|
|        6710|  3.6953e+01|  3.6953e+01|  -10.064174|  1.8597e-06|    0.116837|
|        6720|  3.6953e+01|  3.6953e+01|  -10.066461|  1.8501e-06|    0.116839|
|        6730|  3.6953e+01|  3.6953e+01|  -10.068746|  1.8406e-06|    0.116841|
|        6740|  3.6953e+01|  3.6953e+01|  -10.071032|  1.8311e-06|    0.116843|
|        6750|  3.6953e+01|  3.6953e+01|  -10.073317|  1.8216e-06|    0.116845|
|        6760|  3.6953e+01|  3.6953e+01|  -10.075601|  1.8122e-06|    0.116847|
|        6770|  3.6953e+01|  3.6953e+01|  -10.077886|  1.8029e-06|    0.116849|
|        6780|  3.6953e+01|  3.6953e+01|  -10.080170|  1.7936e-06|    0.116851|
|        6790|  3.6953e+01|  3.6953e+01|  -10.082455|  1.7843e-06|    0.116852|
|        6800|  3.6953e+01|  3.6953e+01|  -10.084739|  1.7751e-06|    0.116854|
+-----------------------------------------------------------------------+
|        File Writing Summary       |              Filename             |
+-----------------------------------------------------------------------+
|SU2 binary restart                 |restart_flow_aoa145.dat            |
|Paraview                           |flow_aoa145.vtu                    |
|Paraview surface                   |surface_flow_aoa145.vtu            |
+-----------------------------------------------------------------------+
+-----------------------------------------------------------------------------+
|  Inner_Iter|     Min CFL|     Max CFL|      rms[P]|  Cauchy[CD]|          CD|
+-----------------------------------------------------------------------------+
|        6810|  3.6953e+01|  3.6953e+01|  -10.087024|  1.7660e-06|    0.116856|
|        6820|  3.6953e+01|  3.6953e+01|  -10.089309|  1.7569e-06|    0.116858|
|        6830|  3.6953e+01|  3.6953e+01|  -10.091593|  1.7478e-06|    0.116860|
|        6840|  3.6953e+01|  3.6953e+01|  -10.093879|  1.7388e-06|    0.116862|
|        6850|  3.6953e+01|  3.6953e+01|  -10.096165|  1.7299e-06|    0.116864|
|        6860|  3.6953e+01|  3.6953e+01|  -10.098452|  1.7209e-06|    0.116866|
|        6870|  3.6953e+01|  3.6953e+01|  -10.100739|  1.7121e-06|    0.116868|
|        6880|  3.6953e+01|  3.6953e+01|  -10.103027|  1.7033e-06|    0.116870|
|        6890|  3.6953e+01|  3.6953e+01|  -10.105315|  1.6945e-06|    0.116872|
|        6900|  3.6953e+01|  3.6953e+01|  -10.107603|  1.6858e-06|    0.116873|
|        6910|  3.6953e+01|  3.6953e+01|  -10.109893|  1.6771e-06|    0.116875|
|        6920|  3.6953e+01|  3.6953e+01|  -10.112183|  1.6684e-06|    0.116877|
|        6930|  3.6953e+01|  3.6953e+01|  -10.114474|  1.6598e-06|    0.116879|
|        6940|  3.6953e+01|  3.6953e+01|  -10.116766|  1.6513e-06|    0.116881|
|        6950|  3.6953e+01|  3.6953e+01|  -10.119058|  1.6428e-06|    0.116882|
|        6960|  3.6953e+01|  3.6953e+01|  -10.121352|  1.6343e-06|    0.116884|
|        6970|  3.6953e+01|  3.6953e+01|  -10.123647|  1.6259e-06|    0.116886|
|        6980|  3.6953e+01|  3.6953e+01|  -10.125942|  1.6175e-06|    0.116888|
|        6990|  3.6953e+01|  3.6953e+01|  -10.128238|  1.6091e-06|    0.116890|
|        7000|  3.6953e+01|  3.6953e+01|  -10.130535|  1.6008e-06|    0.116891|
+-----------------------------------------------------------------------+
|        File Writing Summary       |              Filename             |
+-----------------------------------------------------------------------+
|SU2 binary restart                 |restart_flow_aoa145.dat            |
|Paraview                           |flow_aoa145.vtu                    |
|Paraview surface                   |surface_flow_aoa145.vtu            |
+-----------------------------------------------------------------------+
+-----------------------------------------------------------------------------+
|  Inner_Iter|     Min CFL|     Max CFL|      rms[P]|  Cauchy[CD]|          CD|
+-----------------------------------------------------------------------------+
|        7010|  3.6953e+01|  3.6953e+01|  -10.132833|  1.5926e-06|    0.116893|
|        7020|  3.6953e+01|  3.6953e+01|  -10.135131|  1.5843e-06|    0.116895|
|        7030|  3.6953e+01|  3.6953e+01|  -10.137429|  1.5762e-06|    0.116897|
|        7040|  3.6953e+01|  3.6953e+01|  -10.139729|  1.5680e-06|    0.116898|
|        7050|  3.6953e+01|  3.6953e+01|  -10.142028|  1.5599e-06|    0.116900|
|        7060|  3.6953e+01|  3.6953e+01|  -10.144328|  1.5519e-06|    0.116902|
|        7070|  3.6953e+01|  3.6953e+01|  -10.146627|  1.5438e-06|    0.116903|
|        7080|  3.6953e+01|  3.6953e+01|  -10.148927|  1.5359e-06|    0.116905|
|        7090|  3.6953e+01|  3.6953e+01|  -10.151228|  1.5279e-06|    0.116907|
|        7100|  3.6953e+01|  3.6953e+01|  -10.153531|  1.5200e-06|    0.116908|
|        7110|  3.6953e+01|  3.6953e+01|  -10.155835|  1.5121e-06|    0.116910|
|        7120|  3.6953e+01|  3.6953e+01|  -10.158141|  1.5043e-06|    0.116912|
|        7130|  3.6953e+01|  3.6953e+01|  -10.160446|  1.4965e-06|    0.116913|
|        7140|  3.6953e+01|  3.6953e+01|  -10.162751|  1.4888e-06|    0.116915|
|        7150|  3.6953e+01|  3.6953e+01|  -10.165054|  1.4811e-06|    0.116917|
|        7160|  3.6953e+01|  3.6953e+01|  -10.167356|  1.4734e-06|    0.116918|
|        7170|  3.6953e+01|  3.6953e+01|  -10.169656|  1.4658e-06|    0.116920|
|        7180|  3.6953e+01|  3.6953e+01|  -10.171955|  1.4582e-06|    0.116921|
|        7190|  3.6953e+01|  3.6953e+01|  -10.174255|  1.4507e-06|    0.116923|
|        7200|  3.6953e+01|  3.6953e+01|  -10.176555|  1.4432e-06|    0.116925|
+-----------------------------------------------------------------------+
|        File Writing Summary       |              Filename             |
+-----------------------------------------------------------------------+
|SU2 binary restart                 |restart_flow_aoa145.dat            |
|Paraview                           |flow_aoa145.vtu                    |
|Paraview surface                   |surface_flow_aoa145.vtu            |
+-----------------------------------------------------------------------+
+-----------------------------------------------------------------------------+
|  Inner_Iter|     Min CFL|     Max CFL|      rms[P]|  Cauchy[CD]|          CD|
+-----------------------------------------------------------------------------+
|        7210|  3.6953e+01|  3.6953e+01|  -10.178856|  1.4357e-06|    0.116926|
|        7220|  3.6953e+01|  3.6953e+01|  -10.181156|  1.4283e-06|    0.116928|
|        7230|  3.6953e+01|  3.6953e+01|  -10.183456|  1.4209e-06|    0.116929|
|        7240|  3.6953e+01|  3.6953e+01|  -10.185756|  1.4135e-06|    0.116931|
|        7250|  3.6953e+01|  3.6953e+01|  -10.188054|  1.4062e-06|    0.116932|
|        7260|  3.6953e+01|  3.6953e+01|  -10.190351|  1.3989e-06|    0.116934|
|        7270|  3.6953e+01|  3.6953e+01|  -10.192646|  1.3916e-06|    0.116936|
|        7280|  3.6953e+01|  3.6953e+01|  -10.194941|  1.3844e-06|    0.116937|
|        7290|  3.6953e+01|  3.6953e+01|  -10.197235|  1.3772e-06|    0.116939|
|        7300|  3.6953e+01|  3.6953e+01|  -10.199528|  1.3701e-06|    0.116940|
|        7310|  3.6953e+01|  3.6953e+01|  -10.201820|  1.3630e-06|    0.116942|
|        7320|  3.6953e+01|  3.6953e+01|  -10.204111|  1.3559e-06|    0.116943|
|        7330|  3.6953e+01|  3.6953e+01|  -10.206401|  1.3489e-06|    0.116945|
|        7340|  3.6953e+01|  3.6953e+01|  -10.208690|  1.3419e-06|    0.116946|
|        7350|  3.6953e+01|  3.6953e+01|  -10.210978|  1.3349e-06|    0.116947|
|        7360|  3.6953e+01|  3.6953e+01|  -10.213265|  1.3280e-06|    0.116949|
|        7370|  3.6953e+01|  3.6953e+01|  -10.215551|  1.3211e-06|    0.116950|
|        7380|  3.6953e+01|  3.6953e+01|  -10.217836|  1.3142e-06|    0.116952|
|        7390|  3.6953e+01|  3.6953e+01|  -10.220120|  1.3074e-06|    0.116953|
|        7400|  3.6953e+01|  3.6953e+01|  -10.222403|  1.3006e-06|    0.116955|
+-----------------------------------------------------------------------+
|        File Writing Summary       |              Filename             |
+-----------------------------------------------------------------------+
|SU2 binary restart                 |restart_flow_aoa145.dat            |
|Paraview                           |flow_aoa145.vtu                    |
|Paraview surface                   |surface_flow_aoa145.vtu            |
+-----------------------------------------------------------------------+
+-----------------------------------------------------------------------------+
|  Inner_Iter|     Min CFL|     Max CFL|      rms[P]|  Cauchy[CD]|          CD|
+-----------------------------------------------------------------------------+
|        7410|  3.6953e+01|  3.6953e+01|  -10.224685|  1.2939e-06|    0.116956|
|        7420|  3.6953e+01|  3.6953e+01|  -10.226966|  1.2871e-06|    0.116958|
|        7430|  3.6953e+01|  3.6953e+01|  -10.229247|  1.2805e-06|    0.116959|
|        7440|  3.6953e+01|  3.6953e+01|  -10.231526|  1.2738e-06|    0.116960|
|        7450|  3.6953e+01|  3.6953e+01|  -10.233805|  1.2672e-06|    0.116962|
|        7460|  3.6953e+01|  3.6953e+01|  -10.236083|  1.2606e-06|    0.116963|
|        7470|  3.6953e+01|  3.6953e+01|  -10.238360|  1.2541e-06|    0.116964|
|        7480|  3.6953e+01|  3.6953e+01|  -10.240636|  1.2476e-06|    0.116966|
|        7490|  3.6953e+01|  3.6953e+01|  -10.242911|  1.2411e-06|    0.116967|
|        7500|  3.6953e+01|  3.6953e+01|  -10.245186|  1.2347e-06|    0.116969|
|        7510|  3.6953e+01|  3.6953e+01|  -10.247461|  1.2283e-06|    0.116970|
|        7520|  3.6953e+01|  3.6953e+01|  -10.249735|  1.2219e-06|    0.116971|
|        7530|  3.6953e+01|  3.6953e+01|  -10.252008|  1.2156e-06|    0.116973|
|        7540|  3.6953e+01|  3.6953e+01|  -10.254281|  1.2093e-06|    0.116974|
|        7550|  3.6953e+01|  3.6953e+01|  -10.256554|  1.2030e-06|    0.116975|
|        7560|  3.6953e+01|  3.6953e+01|  -10.258826|  1.1968e-06|    0.116977|
|        7570|  3.6953e+01|  3.6953e+01|  -10.261097|  1.1906e-06|    0.116978|
|        7580|  3.6953e+01|  3.6953e+01|  -10.263369|  1.1844e-06|    0.116979|
|        7590|  3.6953e+01|  3.6953e+01|  -10.265639|  1.1783e-06|    0.116980|
|        7600|  3.6953e+01|  3.6953e+01|  -10.267910|  1.1721e-06|    0.116982|
+-----------------------------------------------------------------------+
|        File Writing Summary       |              Filename             |
+-----------------------------------------------------------------------+
|SU2 binary restart                 |restart_flow_aoa145.dat            |
|Paraview                           |flow_aoa145.vtu                    |
|Paraview surface                   |surface_flow_aoa145.vtu            |
+-----------------------------------------------------------------------+
+-----------------------------------------------------------------------------+
|  Inner_Iter|     Min CFL|     Max CFL|      rms[P]|  Cauchy[CD]|          CD|
+-----------------------------------------------------------------------------+
|        7610|  3.6953e+01|  3.6953e+01|  -10.270180|  1.1661e-06|    0.116983|
|        7620|  3.6953e+01|  3.6953e+01|  -10.272451|  1.1600e-06|    0.116984|
|        7630|  3.6953e+01|  3.6953e+01|  -10.274721|  1.1540e-06|    0.116986|
|        7640|  3.6953e+01|  3.6953e+01|  -10.276991|  1.1480e-06|    0.116987|
|        7650|  3.6953e+01|  3.6953e+01|  -10.279261|  1.1421e-06|    0.116988|
|        7660|  3.6953e+01|  3.6953e+01|  -10.281531|  1.1362e-06|    0.116989|
|        7670|  3.6953e+01|  3.6953e+01|  -10.283801|  1.1303e-06|    0.116991|
|        7680|  3.6953e+01|  3.6953e+01|  -10.286070|  1.1244e-06|    0.116992|
|        7690|  3.6953e+01|  3.6953e+01|  -10.288340|  1.1186e-06|    0.116993|
|        7700|  3.6953e+01|  3.6953e+01|  -10.290610|  1.1128e-06|    0.116994|
|        7710|  3.6953e+01|  3.6953e+01|  -10.292880|  1.1070e-06|    0.116995|
|        7720|  3.6953e+01|  3.6953e+01|  -10.295150|  1.1012e-06|    0.116997|
|        7730|  3.6953e+01|  3.6953e+01|  -10.297420|  1.0955e-06|    0.116998|
|        7740|  3.6953e+01|  3.6953e+01|  -10.299690|  1.0898e-06|    0.116999|
|        7750|  3.6953e+01|  3.6953e+01|  -10.301961|  1.0842e-06|    0.117000|
|        7760|  3.6953e+01|  3.6953e+01|  -10.304231|  1.0786e-06|    0.117001|
|        7770|  3.6953e+01|  3.6953e+01|  -10.306502|  1.0730e-06|    0.117003|
|        7780|  3.6953e+01|  3.6953e+01|  -10.308773|  1.0674e-06|    0.117004|
|        7790|  3.6953e+01|  3.6953e+01|  -10.311044|  1.0619e-06|    0.117005|
|        7800|  3.6953e+01|  3.6953e+01|  -10.313315|  1.0564e-06|    0.117006|
+-----------------------------------------------------------------------+
|        File Writing Summary       |              Filename             |
+-----------------------------------------------------------------------+
|SU2 binary restart                 |restart_flow_aoa145.dat            |
|Paraview                           |flow_aoa145.vtu                    |
|Paraview surface                   |surface_flow_aoa145.vtu            |
+-----------------------------------------------------------------------+
+-----------------------------------------------------------------------------+
|  Inner_Iter|     Min CFL|     Max CFL|      rms[P]|  Cauchy[CD]|          CD|
+-----------------------------------------------------------------------------+
|        7810|  3.6953e+01|  3.6953e+01|  -10.315586|  1.0509e-06|    0.117007|
|        7820|  3.6953e+01|  3.6953e+01|  -10.317857|  1.0455e-06|    0.117008|
|        7830|  3.6953e+01|  3.6953e+01|  -10.320129|  1.0400e-06|    0.117010|
|        7840|  3.6953e+01|  3.6953e+01|  -10.322400|  1.0346e-06|    0.117011|
|        7850|  3.6953e+01|  3.6953e+01|  -10.324672|  1.0293e-06|    0.117012|
|        7860|  3.6953e+01|  3.6953e+01|  -10.326943|  1.0240e-06|    0.117013|
|        7870|  3.6953e+01|  3.6953e+01|  -10.329215|  1.0186e-06|    0.117014|
|        7880|  3.6953e+01|  3.6953e+01|  -10.331487|  1.0134e-06|    0.117015|
|        7890|  3.6953e+01|  3.6953e+01|  -10.333758|  1.0081e-06|    0.117016|
|        7900|  3.6953e+01|  3.6953e+01|  -10.336030|  1.0029e-06|    0.117017|
|        7906|  3.6953e+01|  3.6953e+01|  -10.337393|  9.9978e-07|    0.117018|

----------------------------- Solver Exit -------------------------------
All convergence criteria satisfied.
+-----------------------------------------------------------------------+
|      Convergence Field     |     Value    |   Criterion  |  Converged |
+-----------------------------------------------------------------------+
|                      rms[P]|      -10.3374|          < -9|         Yes|
|                  Cauchy[CD]|   9.99778e-07|       < 1e-06|         Yes|
+-----------------------------------------------------------------------+
-------------------------------------------------------------------------
+-----------------------------------------------------------------------+
|        File Writing Summary       |              Filename             |
+-----------------------------------------------------------------------+
|SU2 binary restart                 |restart_flow_aoa145.dat            |
|Paraview                           |flow_aoa145.vtu                    |
|Paraview surface                   |surface_flow_aoa145.vtu            |
+-----------------------------------------------------------------------+

------------------------- Solver Postprocessing -------------------------
Deleted CNumerics container.
Deleted CIntegration container.
Deleted CSolver container.
Deleted CIteration container.
Deleted CInterface container.
Deleted CGeometry container.
Deleted CFreeFormDefBox class.
Deleted CSurfaceMovement class.
Deleted CVolumetricMovement class.
Deleted CConfig container.
Deleted nInst container.
Deleted COutput class.
-------------------------------------------------------------------------

------------------------- Exit Success (SU2_CFD) ------------------------

