
-------------------------------------------------------------------------
|    ___ _   _ ___                                                      |
|   / __| | | |_  )   Release 7.4.0 "Blackbird"                         |
|   \__ \ |_| |/ /                                                      |
|   |___/\___//___|   Suite (Computational Fluid Dynamics Code)         |
|                                                                       |
-------------------------------------------------------------------------
| SU2 Project Website: https://su2code.github.io                        |
|                                                                       |
| The SU2 Project is maintained by the SU2 Foundation                   |
| (http://su2foundation.org)                                            |
-------------------------------------------------------------------------
| Copyright 2012-2022, SU2 Contributors                                 |
|                                                                       |
| SU2 is free software; you can redistribute it and/or                  |
| modify it under the terms of the GNU Lesser General Public            |
| License as published by the Free Software Foundation; either          |
| version 2.1 of the License, or (at your option) any later version.    |
|                                                                       |
| SU2 is distributed in the hope that it will be useful,                |
| but WITHOUT ANY WARRANTY; without even the implied warranty of        |
| MERCHANTABILITY or FITNESS FOR A PARTICULAR PURPOSE. See the GNU      |
| Lesser General Public License for more details.                       |
|                                                                       |
| You should have received a copy of the GNU Lesser General Public      |
| License along with SU2. If not, see <http://www.gnu.org/licenses/>.   |
-------------------------------------------------------------------------

Parsing config file for zone 0

----------------- Physical Case Definition ( Zone 0 ) -------------------
Incompressible RANS equations.
Turbulence model: Spalart-Allmaras-noft2
Hybrid RANS/LES: No Hybrid RANS/LES
Reading and writing binary SU2 native restart files.
Read flow solution from: ../../../O1/caseG5/cfdG5/restart_flow_G5.dat.
Non-Dimensional simulation using intialization values.
The reference area is 1 m^2.
The semi-span will be computed using the max y(3D) value.
The reference length is 1.00898 m.
Reference origin for moment evaluation is (-0.756, 0, 0).
Surface(s) where the force coefficients are evaluated: AIRFOIL.

Surface(s) plotted in the output file: AIRFOIL.
Input mesh file name: ../meshG5/meshG5.su2

--------------- Space Numerical Integration ( Zone 0 ) ------------------
Flux difference splitting (FDS) upwind scheme for the flow inviscid terms.
Second order integration in space, with slope limiter.
Venkatakrishnan slope-limiting method, with constant: 0.065.
The reference element size is: 1. 
Average of gradients with correction (viscous flow terms).
Average of gradients with correction (viscous turbulence terms).
Gradient for upwind reconstruction: unweighted Least-Squares.
Gradient for viscous and source terms: Green-Gauss.

--------------- Time Numerical Integration  ( Zone 0 ) ------------------
Local time stepping (steady state simulation).
Euler implicit method for the flow equations.
FGMRES is used for solving the linear system.
Using a ILU(0) preconditioning.
Convergence criteria of the linear solver: 1e-06.
Max number of linear iterations: 10.
CFL adaptation. Factor down: 0.1, factor up: 1.2,
                lower limit: 1, upper limit: 1000,
                acceptable linear residual: 0.001.
Courant-Friedrichs-Lewy number:        2
Euler implicit time integration for the turbulence model.

------------------ Convergence Criteria  ( Zone 0 ) ---------------------
Maximum number of solver subiterations: 20000.
Begin convergence monitoring at iteration 10.
Residual minimum value: 1e-9.
Cauchy series min. value: 1e-06.
Number of Cauchy elements: 250.
Begin windowed time average at iteration 0.

-------------------- Output Information ( Zone 0 ) ----------------------
File writing frequency: 
+------------------------------------+
|                     File| Frequency|
+------------------------------------+
|                  RESTART|       200|
|                 PARAVIEW|       200|
|         SURFACE_PARAVIEW|       200|
+------------------------------------+
Writing the convergence history file every 1 inner iterations.
Writing the screen convergence history every 10 inner iterations.
The tabular file format is CSV (.csv).
Convergence history file name: history_G5.
Forces breakdown file name: forces_breakdown.dat.
Surface file name: surface_flow_G5.
Volume file name: flow_G5.
Restart file name: restart_flow_G5.dat.

------------- Config File Boundary Information ( Zone 0 ) ---------------
+-----------------------------------------------------------------------+
|                        Marker Type|                        Marker Name|
+-----------------------------------------------------------------------+
|                          Far-field|                           FARFIELD|
+-----------------------------------------------------------------------+
|                     Heat flux wall|                            AIRFOIL|
+-----------------------------------------------------------------------+

-------------------- Output Preprocessing ( Zone 0 ) --------------------

WARNING: SURFACE_PRESSURE_DROP can only be computed for at least 2 surfaces (outlet, inlet, ...)

Screen output fields: INNER_ITER, MIN_CFL, MAX_CFL, RMS_PRESSURE, CAUCHY_DRAG, DRAG
History output group(s): INNER_ITER, MIN_CFL, MAX_CFL, RMS_RES, LIFT, DRAG, MOMENT_Z, CAUCHY
Convergence field(s): RMS_PRESSURE, DRAG
Warning: No (valid) fields chosen for time convergence monitoring. Time convergence monitoring inactive.
Volume output fields: COORDINATES, SOLUTION, PRIMITIVE, RESIDUAL, MESH_QUALITY

------------------- Geometry Preprocessing ( Zone 0 ) -------------------
Two dimensional problem.
206952 grid points before partitioning.
205920 volume elements before partitioning.
2 surface markers.
618 boundary elements in index 0 (Marker = AIRFOIL).
1446 boundary elements in index 1 (Marker = FARFIELD).
Executing the partitioning functions.
Building the graph adjacency structure.
Calling ParMETIS... graph partitioning complete (3066 edge cuts).
Distributing ParMETIS coloring.
Rebalancing vertices.
Rebalancing volume element connectivity.
Rebalancing markers and surface elements.
213106 vertices including ghost points. 
208985 interior elements including halo cells. 
208985 quadrilaterals.
Establishing MPI communication patterns.
Setting point connectivity.
Renumbering points (Reverse Cuthill McKee Ordering).
Recomputing point connectivity.
Setting element connectivity.
Checking the numerical grid orientation.
All volume elements are correctly orientend.
There has been a re-orientation of 1039 LINE surface elements.
Identifying edges and vertices.
Setting the control volume structure.
Area of the computational grid: 3230.11.
Searching for the closest normal neighbors to the surfaces.
Storing a mapping from global to local point index.
Compute the surface curvature.
Max K: 5203.37. Mean K: 5.32381. Standard deviation K: 116.416.
Checking for periodicity.
Computing mesh quality statistics for the dual control volumes.
+--------------------------------------------------------------+
|           Mesh Quality Metric|        Minimum|        Maximum|
+--------------------------------------------------------------+
|    Orthogonality Angle (deg.)|        76.8599|             90|
|     CV Face Area Aspect Ratio|        1.00001|         223585|
|           CV Sub-Volume Ratio|              1|         150.61|
+--------------------------------------------------------------+
Finding max control volume width.
Communicating number of neighbors.
Wetted area = 2.05966 m.
Area projection in the x-plane = 0.121115 m, y-plane = 1.00879 m.
Max. coordinate in the x-direction = 1.00898 m, y-direction = 0.075984 m.
Min. coordinate in the x-direction = 6.64364e-06 m, y-direction = -0.0451339 m.
Computing wall distances.

-------------------- Solver Preprocessing ( Zone 0 ) --------------------
 Warning: There is no restart file (flow.meta).
 Computation will continue without updating metadata parameters.
Incompressible flow: rho_ref, vel_ref, and temp_ref
are based on the initial values, p_ref = rho_ref*vel_ref^2.
Force coefficients computed using initial values.
The reference area for force coeffs. is 1 m^2.
The reference length for force coeffs. is 1.00898 m.
The pressure is decomposed into thermodynamic and dynamic components.
The initial value of the dynamic pressure is 0.
Mach number: 0.0276747, computed using the Bulk modulus.
For external flows, the initial state is imposed at the far-field.
Angle of attack (deg): 14, computed using the initial velocity.
Side slip angle (deg): 0, computed using the initial velocity.
Reynolds number per meter: 594999, computed using initial values.
Reynolds number is a byproduct of inputs only (not used internally).
SI units only. The grid should be dimensional (meters).
No energy equation.

-- Models:
+------------------------------------------------------------------------------+
|          Viscosity Model|        Conductivity Model|              Fluid Model|
+------------------------------------------------------------------------------+
|       CONSTANT_VISCOSITY|          CONSTANT_PRANDTL|         CONSTANT_DENSITY|
+------------------------------------------------------------------------------+
-- Fluid properties:
+------------------------------------------------------------------------------+
|                  Name|    Dim. value|    Ref. value|      Unit|Non-dim. value|
+------------------------------------------------------------------------------+
|             Viscosity|      1.92e-05|        11.424|   N.s/m^2|   1.68067e-06|
+------------------------------------------------------------------------------+
|        Prandtl (Lam.)|             -|             -|         -|          0.72|
|       Prandtl (Turb.)|             -|             -|         -|           0.9|
+------------------------------------------------------------------------------+
|          Bulk Modulus|        142000|             1|        Pa|        142000|
+------------------------------------------------------------------------------+
-- Initial and free-stream conditions:
+------------------------------------------------------------------------------+
|                  Name|    Dim. value|    Ref. value|      Unit|Non-dim. value|
+------------------------------------------------------------------------------+
|      Dynamic Pressure|             0|       108.756|        Pa|             0|
|        Total Pressure|       54.3781|       108.756|        Pa|           0.5|
|               Density|           1.2|           1.2|    kg/m^3|             1|
|            Velocity-X|        9.2372|       9.51999|       m/s|      0.970296|
|            Velocity-Y|        2.3031|       9.51999|       m/s|      0.241923|
|    Velocity Magnitude|       9.51999|       9.51999|       m/s|             1|
+------------------------------------------------------------------------------+
|             Viscosity|      1.92e-05|        11.424|   N.s/m^2|   1.68067e-06|
|          Conductivity|             -|       3.59312|   W/m^2.K|             -|
|     Turb. Kin. Energy|       1.35945|       90.6301|   m^2/s^2|         0.015|
|     Spec. Dissipation|       8496.58|       9.51999|       1/s|       892.499|
+------------------------------------------------------------------------------+
|           Mach Number|             -|             -|         -|     0.0276747|
|       Reynolds Number|             -|             -|         -|        594999|
+------------------------------------------------------------------------------+
Initialize Jacobian structure (Navier-Stokes). MG level: 0.
Initialize Jacobian structure (SA model).

------------------- Numerics Preprocessing ( Zone 0 ) -------------------

----------------- Integration Preprocessing ( Zone 0 ) ------------------

------------------- Iteration Preprocessing ( Zone 0 ) ------------------
Euler/Navier-Stokes/RANS fluid iteration.

------------------------------ Begin Solver -----------------------------

Simulation Run using the Single-zone Driver
+-----------------------------------------------------------------------------+
|  Inner_Iter|     Min CFL|     Max CFL|      rms[P]|  Cauchy[CD]|          CD|
+-----------------------------------------------------------------------------+
|           0|  2.4000e+00|  2.4000e+00|   -6.151415|  1.0000e+00|    0.116445|
|          10|  1.4860e+01|  1.4860e+01|   -6.209312|  3.0680e-05|    0.115556|
|          20|  7.6675e+00|  7.6675e+00|   -6.478563|  8.5302e-04|    0.094105|
|          30|  4.7475e+01|  4.7475e+01|   -6.476376|  1.5035e-03|    0.077844|
|          40|  2.4496e+01|  2.4496e+01|   -6.504795|  1.7241e-03|    0.072329|
|          50|  1.2639e+01|  1.2639e+01|   -6.542508|  1.7954e-03|    0.070545|
|          60|  6.5217e+01|  6.5217e+01|   -6.550198|  1.8922e-03|    0.068126|
|          70|  1.1270e+01|  1.1270e+01|   -6.602995|  2.1952e-03|    0.060552|
|          80|  6.9778e+01|  6.9778e+01|   -6.728356|  2.2590e-03|    0.059601|
|          90|  3.6004e+01|  3.6004e+01|   -6.785443|  2.3487e-03|    0.061844|
|         100|  1.8577e+01|  1.8577e+01|   -6.798442|  2.5563e-03|    0.067034|
|         110|  9.5854e+00|  9.5854e+00|   -6.772750|  2.6882e-03|    0.070332|
|         120|  5.9350e+01|  5.9350e+01|   -6.780400|  2.7141e-03|    0.070331|
|         130|  3.0623e+01|  3.0623e+01|   -6.788804|  2.7679e-03|    0.068984|
|         140|  1.5801e+01|  1.5801e+01|   -6.854541|  2.8977e-03|    0.065739|
|         150|  5.6618e+01|  5.6618e+01|   -6.888863|  3.0357e-03|    0.062290|
|         160|  2.0287e+01|  2.0287e+01|   -6.832285|  3.0512e-03|    0.061988|
|         170|  1.0468e+01|  1.0468e+01|   -6.836780|  3.0892e-03|    0.062938|
|         180|  6.4814e+01|  6.4814e+01|   -6.906474|  3.1099e-03|    0.063457|
|         190|  3.3442e+01|  3.3442e+01|   -6.990809|  3.1246e-03|    0.063091|
|         200|  1.7256e+01|  1.7256e+01|   -7.026037|  3.1595e-03|    0.062219|
+-----------------------------------------------------------------------+
|        File Writing Summary       |              Filename             |
+-----------------------------------------------------------------------+
|SU2 binary restart                 |restart_flow_G5.dat                |
|Paraview                           |flow_G5.vtu                        |
|Paraview surface                   |surface_flow_G5.vtu                |
+-----------------------------------------------------------------------+
+-----------------------------------------------------------------------------+
|  Inner_Iter|     Min CFL|     Max CFL|      rms[P]|  Cauchy[CD]|          CD|
+-----------------------------------------------------------------------------+
|         210|  8.9035e+00|  8.9035e+00|   -6.997293|  3.1801e-03|    0.061704|
|         220|  5.5128e+01|  5.5128e+01|   -6.976860|  3.1977e-03|    0.062145|
|         230|  5.5128e+01|  5.5128e+01|   -7.062037|  3.2428e-03|    0.063114|
|         240|  7.9384e+00|  7.9384e+00|   -7.140952|  3.3118e-03|    0.061390|
|         250|  4.9153e+01|  4.9153e+01|   -7.104721|  3.3347e-03|    0.060816|
|         260|  5.8983e+01|  5.8983e+01|   -7.170747|  3.3135e-03|    0.060697|
|         270|  5.8983e+01|  5.8983e+01|   -7.329264|  2.5422e-03|    0.059421|
|         280|  5.8983e+01|  5.8983e+01|   -7.286280|  1.9719e-03|    0.057417|
|         290|  5.8983e+01|  5.8983e+01|   -7.467419|  1.7711e-03|    0.056924|
|         300|  5.8983e+01|  5.8983e+01|   -7.391886|  1.7030e-03|    0.056845|
|         310|  5.8983e+01|  5.8983e+01|   -7.588665|  1.6292e-03|    0.056272|
|         320|  5.8983e+01|  5.8983e+01|   -7.472016|  1.3736e-03|    0.055087|
|         330|  5.8983e+01|  5.8983e+01|   -7.591872|  1.3617e-03|    0.053788|
|         340|  5.8983e+01|  5.8983e+01|   -7.527038|  1.2955e-03|    0.053199|
|         350|  5.8983e+01|  5.8983e+01|   -7.649367|  1.0895e-03|    0.053166|
|         360|  5.8983e+01|  5.8983e+01|   -7.564579|  9.6856e-04|    0.052893|
|         370|  5.8983e+01|  5.8983e+01|   -7.524049|  9.6806e-04|    0.052260|
|         380|  7.0780e+01|  7.0780e+01|   -7.527696|  9.3732e-04|    0.051682|
|         390|  3.6521e+01|  3.6521e+01|   -7.574305|  8.1300e-04|    0.051544|
|         400|  1.8844e+01|  1.8844e+01|   -7.638141|  6.7896e-04|    0.051446|
+-----------------------------------------------------------------------+
|        File Writing Summary       |              Filename             |
+-----------------------------------------------------------------------+
|SU2 binary restart                 |restart_flow_G5.dat                |
|Paraview                           |flow_G5.vtu                        |
|Paraview surface                   |surface_flow_G5.vtu                |
+-----------------------------------------------------------------------+
+-----------------------------------------------------------------------------+
|  Inner_Iter|     Min CFL|     Max CFL|      rms[P]|  Cauchy[CD]|          CD|
+-----------------------------------------------------------------------------+
|         410|  9.7231e+00|  9.7231e+00|   -7.624462|  6.6511e-04|    0.051406|
|         420|  6.0203e+01|  6.0203e+01|   -7.706367|  6.2746e-04|    0.051411|
|         430|  3.1063e+01|  3.1063e+01|   -7.730314|  6.0695e-04|    0.051418|
|         440|  1.6028e+01|  1.6028e+01|   -7.748728|  5.9299e-04|    0.051401|
|         450|  8.2701e+00|  8.2701e+00|   -7.697000|  5.6134e-04|    0.051320|
|         460|  5.1206e+01|  5.1206e+01|   -7.717589|  5.4394e-04|    0.051239|
|         470|  1.8348e+01|  1.8348e+01|   -7.690160|  5.3287e-04|    0.051076|
|         480|  9.4672e+00|  9.4672e+00|   -7.612055|  4.9260e-04|    0.050955|
|         490|  5.8619e+01|  5.8619e+01|   -7.666915|  4.2630e-04|    0.050888|
|         500|  3.0246e+01|  3.0246e+01|   -7.678575|  4.0501e-04|    0.050847|
|         510|  6.2718e+01|  6.2718e+01|   -7.646084|  3.9639e-04|    0.050833|
|         520|  6.2718e+01|  6.2718e+01|   -7.667872|  3.4687e-04|    0.050872|
|         530|  6.2718e+01|  6.2718e+01|   -7.677772|  2.6744e-04|    0.050888|
|         540|  6.2718e+01|  6.2718e+01|   -7.678143|  2.4798e-04|    0.050883|
|         550|  6.2718e+01|  6.2718e+01|   -7.663190|  2.4577e-04|    0.050910|
|         560|  6.2718e+01|  6.2718e+01|   -7.643201|  2.2535e-04|    0.050973|
|         570|  6.2718e+01|  6.2718e+01|   -7.653022|  1.8132e-04|    0.051057|
|         580|  6.2718e+01|  6.2718e+01|   -7.679124|  1.3332e-04|    0.051157|
|         590|  6.2718e+01|  6.2718e+01|   -7.693350|  1.1368e-04|    0.051254|
|         600|  6.2718e+01|  6.2718e+01|   -7.686622|  1.1568e-04|    0.051344|
+-----------------------------------------------------------------------+
|        File Writing Summary       |              Filename             |
+-----------------------------------------------------------------------+
|SU2 binary restart                 |restart_flow_G5.dat                |
|Paraview                           |flow_G5.vtu                        |
|Paraview surface                   |surface_flow_G5.vtu                |
+-----------------------------------------------------------------------+
+-----------------------------------------------------------------------------+
|  Inner_Iter|     Min CFL|     Max CFL|      rms[P]|  Cauchy[CD]|          CD|
+-----------------------------------------------------------------------------+
|         610|  6.2718e+01|  6.2718e+01|   -7.681517|  1.0872e-04|    0.051444|
|         620|  6.2718e+01|  6.2718e+01|   -7.685105|  8.8317e-05|    0.051566|
|         630|  6.2718e+01|  6.2718e+01|   -7.687697|  7.0426e-05|    0.051697|
|         640|  6.2718e+01|  6.2718e+01|   -7.688583|  6.9586e-05|    0.051813|
|         650|  3.2361e+01|  3.2361e+01|   -7.711537|  6.7439e-05|    0.051858|
|         660|  1.6698e+01|  1.6698e+01|   -7.717153|  6.7648e-05|    0.051904|
|         670|  8.6156e+00|  8.6156e+00|   -7.713398|  6.9646e-05|    0.051962|
|         680|  5.3345e+01|  5.3345e+01|   -7.731705|  7.1007e-05|    0.052003|
|         690|  7.6817e+01|  7.6817e+01|   -7.743678|  7.4635e-05|    0.052111|
|         700|  3.9636e+01|  3.9636e+01|   -7.771426|  7.2994e-05|    0.052151|
|         710|  2.0451e+01|  2.0451e+01|   -7.787929|  7.1444e-05|    0.052193|
|         720|  1.0552e+01|  1.0552e+01|   -7.796166|  6.6972e-05|    0.052245|
|         730|  6.5338e+01|  6.5338e+01|   -7.834865|  6.3692e-05|    0.052284|
|         740|  6.5338e+01|  6.5338e+01|   -7.875069|  6.4167e-05|    0.052362|
|         750|  6.5338e+01|  6.5338e+01|   -7.927373|  6.5101e-05|    0.052427|
|         760|  6.5338e+01|  6.5338e+01|   -7.969402|  6.6622e-05|    0.052485|
|         770|  6.5338e+01|  6.5338e+01|   -7.998649|  6.6904e-05|    0.052531|
|         780|  6.5338e+01|  6.5338e+01|   -8.013884|  6.7343e-05|    0.052560|
|         790|  2.3412e+01|  2.3412e+01|   -8.046732|  6.7374e-05|    0.052567|
|         800|  1.2080e+01|  1.2080e+01|   -8.001732|  6.6433e-05|    0.052571|
+-----------------------------------------------------------------------+
|        File Writing Summary       |              Filename             |
+-----------------------------------------------------------------------+
|SU2 binary restart                 |restart_flow_G5.dat                |
|Paraview                           |flow_G5.vtu                        |
|Paraview surface                   |surface_flow_G5.vtu                |
+-----------------------------------------------------------------------+
+-----------------------------------------------------------------------------+
|  Inner_Iter|     Min CFL|     Max CFL|      rms[P]|  Cauchy[CD]|          CD|
+-----------------------------------------------------------------------------+
|         810|  6.2330e+01|  6.2330e+01|   -8.033671|  6.4029e-05|    0.052574|
|         820|  6.2330e+01|  6.2330e+01|   -8.019888|  6.0852e-05|    0.052573|
|         830|  6.2330e+01|  6.2330e+01|   -8.002639|  5.7551e-05|    0.052556|
|         840|  6.2330e+01|  6.2330e+01|   -7.984008|  5.4788e-05|    0.052528|
|         850|  6.2330e+01|  6.2330e+01|   -7.966484|  5.2768e-05|    0.052488|
|         860|  6.2330e+01|  6.2330e+01|   -7.950530|  5.0763e-05|    0.052439|
|         870|  6.2330e+01|  6.2330e+01|   -7.936081|  4.8258e-05|    0.052379|
|         880|  6.2330e+01|  6.2330e+01|   -7.923909|  4.5840e-05|    0.052309|
|         890|  6.2330e+01|  6.2330e+01|   -7.914687|  4.4369e-05|    0.052229|
|         900|  6.2330e+01|  6.2330e+01|   -7.910551|  4.6125e-05|    0.052141|
|         910|  6.2330e+01|  6.2330e+01|   -7.912094|  4.8183e-05|    0.052044|
|         920|  6.2330e+01|  6.2330e+01|   -7.919635|  5.0046e-05|    0.051939|
|         930|  6.2330e+01|  6.2330e+01|   -7.934530|  5.2885e-05|    0.051827|
|         940|  6.2330e+01|  6.2330e+01|   -7.957536|  5.3267e-05|    0.051710|
|         950|  1.0771e+01|  1.0771e+01|   -7.964518|  5.5284e-05|    0.051619|
|         960|  6.6689e+01|  6.6689e+01|   -8.012271|  5.5969e-05|    0.051560|
|         970|  3.4410e+01|  3.4410e+01|   -8.030825|  5.5536e-05|    0.051519|
|         980|  5.9460e+01|  5.9460e+01|   -8.049160|  5.8359e-05|    0.051409|
|         990|  5.9460e+01|  5.9460e+01|   -8.089561|  6.0321e-05|    0.051282|
|        1000|  5.9460e+01|  5.9460e+01|   -8.130247|  6.3035e-05|    0.051149|
+-----------------------------------------------------------------------+
|        File Writing Summary       |              Filename             |
+-----------------------------------------------------------------------+
|SU2 binary restart                 |restart_flow_G5.dat                |
|Paraview                           |flow_G5.vtu                        |
|Paraview surface                   |surface_flow_G5.vtu                |
+-----------------------------------------------------------------------+
+-----------------------------------------------------------------------------+
|  Inner_Iter|     Min CFL|     Max CFL|      rms[P]|  Cauchy[CD]|          CD|
+-----------------------------------------------------------------------------+
|        1010|  1.4796e+01|  1.4796e+01|   -8.166004|  6.3762e-05|    0.051073|
|        1020|  7.6342e+00|  7.6342e+00|   -8.176120|  6.4813e-05|    0.051000|
|        1030|  4.7269e+01|  4.7269e+01|   -8.211123|  6.5469e-05|    0.050956|
|        1040|  5.6723e+01|  5.6723e+01|   -8.214112|  7.0061e-05|    0.050834|
|        1050|  5.6723e+01|  5.6723e+01|   -8.225316|  7.5018e-05|    0.050705|
|        1060|  5.6723e+01|  5.6723e+01|   -8.230038|  8.0178e-05|    0.050573|
|        1070|  5.6723e+01|  5.6723e+01|   -8.227079|  8.5269e-05|    0.050442|
|        1080|  5.6723e+01|  5.6723e+01|   -8.221068|  8.9813e-05|    0.050311|
|        1090|  5.6723e+01|  5.6723e+01|   -8.214800|  9.3820e-05|    0.050182|
|        1100|  5.6723e+01|  5.6723e+01|   -8.209081|  9.7414e-05|    0.050053|
|        1110|  5.6723e+01|  5.6723e+01|   -8.204999|  1.0066e-04|    0.049923|
|        1120|  5.6723e+01|  5.6723e+01|   -8.203222|  1.0344e-04|    0.049793|
|        1130|  5.6723e+01|  5.6723e+01|   -8.204319|  1.0575e-04|    0.049665|
|        1140|  5.6723e+01|  5.6723e+01|   -8.208846|  1.0769e-04|    0.049537|
|        1150|  5.6723e+01|  5.6723e+01|   -8.216937|  1.0928e-04|    0.049409|
|        1160|  5.6723e+01|  5.6723e+01|   -8.228653|  1.1048e-04|    0.049281|
|        1170|  5.6723e+01|  5.6723e+01|   -8.244176|  1.1135e-04|    0.049155|
|        1180|  6.8068e+00|  6.8068e+00|   -8.263621|  1.1147e-04|    0.049040|
|        1190|  4.2146e+01|  4.2146e+01|   -8.299075|  1.0842e-04|    0.048999|
|        1200|  2.1746e+01|  2.1746e+01|   -8.309340|  1.0682e-04|    0.048948|
+-----------------------------------------------------------------------+
|        File Writing Summary       |              Filename             |
+-----------------------------------------------------------------------+
|SU2 binary restart                 |restart_flow_G5.dat                |
|Paraview                           |flow_G5.vtu                        |
|Paraview surface                   |surface_flow_G5.vtu                |
+-----------------------------------------------------------------------+
+-----------------------------------------------------------------------------+
|  Inner_Iter|     Min CFL|     Max CFL|      rms[P]|  Cauchy[CD]|          CD|
+-----------------------------------------------------------------------------+
|        1210|  5.4112e+01|  5.4112e+01|   -8.306570|  1.0821e-04|    0.048855|
|        1220|  5.4112e+01|  5.4112e+01|   -8.331307|  1.1131e-04|    0.048736|
|        1230|  5.4112e+01|  5.4112e+01|   -8.352926|  1.1168e-04|    0.048617|
|        1240|  5.4112e+01|  5.4112e+01|   -8.378107|  1.1133e-04|    0.048498|
|        1250|  5.4112e+01|  5.4112e+01|   -8.400066|  1.1076e-04|    0.048381|
|        1260|  5.4112e+01|  5.4112e+01|   -8.416965|  1.1234e-04|    0.048264|
|        1270|  5.4112e+01|  5.4112e+01|   -8.428904|  1.1405e-04|    0.048149|
|        1280|  5.4112e+01|  5.4112e+01|   -8.436131|  1.1686e-04|    0.048034|
|        1290|  5.4112e+01|  5.4112e+01|   -8.439305|  1.1655e-04|    0.047920|
|        1300|  5.4112e+01|  5.4112e+01|   -8.440369|  1.1594e-04|    0.047807|
|        1310|  5.4112e+00|  5.4112e+00|   -8.441277|  1.1512e-04|    0.047696|
|        1320|  3.3504e+01|  3.3504e+01|   -8.479702|  1.1104e-04|    0.047666|
|        1330|  1.7288e+01|  1.7288e+01|   -8.482194|  1.0775e-04|    0.047617|
|        1340|  5.1620e+01|  5.1620e+01|   -8.454410|  1.0560e-04|    0.047542|
|        1350|  5.1620e+01|  5.1620e+01|   -8.456710|  1.0451e-04|    0.047440|
|        1360|  5.1620e+01|  5.1620e+01|   -8.458129|  1.0338e-04|    0.047338|
|        1370|  5.1620e+01|  5.1620e+01|   -8.462351|  1.0223e-04|    0.047238|
|        1380|  5.1620e+01|  5.1620e+01|   -8.467212|  1.0105e-04|    0.047139|
|        1390|  5.1620e+01|  5.1620e+01|   -8.473014|  9.9799e-05|    0.047042|
|        1400|  5.1620e+01|  5.1620e+01|   -8.479216|  9.8459e-05|    0.046947|
+-----------------------------------------------------------------------+
|        File Writing Summary       |              Filename             |
+-----------------------------------------------------------------------+
|SU2 binary restart                 |restart_flow_G5.dat                |
|Paraview                           |flow_G5.vtu                        |
|Paraview surface                   |surface_flow_G5.vtu                |
+-----------------------------------------------------------------------+
+-----------------------------------------------------------------------------+
|  Inner_Iter|     Min CFL|     Max CFL|      rms[P]|  Cauchy[CD]|          CD|
+-----------------------------------------------------------------------------+
|        1410|  5.1620e+01|  5.1620e+01|   -8.485048|  9.7080e-05|    0.046854|
|        1420|  5.1620e+01|  5.1620e+01|   -8.490289|  9.5697e-05|    0.046763|
|        1430|  5.1620e+01|  5.1620e+01|   -8.494720|  9.4730e-05|    0.046672|
|        1440|  5.1620e+01|  5.1620e+01|   -8.498651|  9.6641e-05|    0.046583|
|        1450|  5.1620e+01|  5.1620e+01|   -8.502118|  9.8116e-05|    0.046496|
|        1460|  5.1620e+01|  5.1620e+01|   -8.504737|  9.7817e-05|    0.046409|
|        1470|  5.1620e+01|  5.1620e+01|   -8.506870|  9.6497e-05|    0.046324|
|        1480|  5.1620e+01|  5.1620e+01|   -8.508822|  9.5118e-05|    0.046239|
|        1490|  1.0704e+01|  1.0704e+01|   -8.518953|  9.2567e-05|    0.046184|
|        1500|  5.5230e+00|  5.5230e+00|   -8.524059|  8.9702e-05|    0.046138|
|        1510|  3.4197e+01|  3.4197e+01|   -8.540002|  8.5963e-05|    0.046115|
|        1520|  4.9244e+01|  4.9244e+01|   -8.518606|  8.4312e-05|    0.046041|
|        1530|  4.9244e+01|  4.9244e+01|   -8.520823|  8.2856e-05|    0.045963|
|        1540|  4.9244e+01|  4.9244e+01|   -8.522489|  8.1433e-05|    0.045884|
|        1550|  4.9244e+01|  4.9244e+01|   -8.525469|  8.0068e-05|    0.045805|
|        1560|  4.9244e+01|  4.9244e+01|   -8.528749|  7.8738e-05|    0.045727|
|        1570|  4.9244e+01|  4.9244e+01|   -8.533182|  8.0641e-05|    0.045650|
|        1580|  4.9244e+01|  4.9244e+01|   -8.538349|  8.1791e-05|    0.045573|
|        1590|  4.9244e+01|  4.9244e+01|   -8.543616|  8.1870e-05|    0.045496|
|        1600|  4.9244e+01|  4.9244e+01|   -8.548940|  8.0878e-05|    0.045418|
+-----------------------------------------------------------------------+
|        File Writing Summary       |              Filename             |
+-----------------------------------------------------------------------+
|SU2 binary restart                 |restart_flow_G5.dat                |
|Paraview                           |flow_G5.vtu                        |
|Paraview surface                   |surface_flow_G5.vtu                |
+-----------------------------------------------------------------------+
+-----------------------------------------------------------------------------+
|  Inner_Iter|     Min CFL|     Max CFL|      rms[P]|  Cauchy[CD]|          CD|
+-----------------------------------------------------------------------------+
|        1610|  4.9244e+01|  4.9244e+01|   -8.553880|  7.9884e-05|    0.045341|
|        1620|  4.9244e+01|  4.9244e+01|   -8.557922|  7.8906e-05|    0.045265|
|        1630|  4.9244e+01|  4.9244e+01|   -8.560984|  7.7988e-05|    0.045189|
|        1640|  4.9244e+00|  4.9244e+00|   -8.563068|  7.7127e-05|    0.045114|
|        1650|  3.0491e+01|  3.0491e+01|   -8.592169|  7.4162e-05|    0.045093|
|        1660|  1.5732e+01|  1.5732e+01|   -8.592702|  7.1768e-05|    0.045060|
|        1670|  4.6977e+01|  4.6977e+01|   -8.570777|  7.0142e-05|    0.045009|
|        1680|  4.6977e+01|  4.6977e+01|   -8.570057|  6.9312e-05|    0.044939|
|        1690|  4.6977e+01|  4.6977e+01|   -8.567741|  6.8549e-05|    0.044869|
|        1700|  4.6977e+01|  4.6977e+01|   -8.565827|  6.7853e-05|    0.044799|
|        1710|  4.6977e+01|  4.6977e+01|   -8.564289|  6.7177e-05|    0.044730|
|        1720|  4.6977e+01|  4.6977e+01|   -8.563098|  6.6501e-05|    0.044661|
|        1730|  4.6977e+01|  4.6977e+01|   -8.562686|  6.5823e-05|    0.044594|
|        1740|  4.6977e+01|  4.6977e+01|   -8.562471|  6.6289e-05|    0.044527|
|        1750|  4.6977e+01|  4.6977e+01|   -8.562677|  6.7093e-05|    0.044461|
|        1760|  4.6977e+01|  4.6977e+01|   -8.563671|  6.8822e-05|    0.044394|
|        1770|  4.6977e+01|  4.6977e+01|   -8.565188|  6.8508e-05|    0.044329|
|        1780|  4.6977e+01|  4.6977e+01|   -8.567046|  6.7974e-05|    0.044263|
|        1790|  4.6977e+01|  4.6977e+01|   -8.569216|  6.7407e-05|    0.044199|
|        1800|  4.6977e+01|  4.6977e+01|   -8.571377|  6.6829e-05|    0.044134|
+-----------------------------------------------------------------------+
|        File Writing Summary       |              Filename             |
+-----------------------------------------------------------------------+
|SU2 binary restart                 |restart_flow_G5.dat                |
|Paraview                           |flow_G5.vtu                        |
|Paraview surface                   |surface_flow_G5.vtu                |
+-----------------------------------------------------------------------+
+-----------------------------------------------------------------------------+
|  Inner_Iter|     Min CFL|     Max CFL|      rms[P]|  Cauchy[CD]|          CD|
+-----------------------------------------------------------------------------+
|        1810|  4.6977e+01|  4.6977e+01|   -8.573460|  6.6274e-05|    0.044070|
|        1820|  4.6977e+01|  4.6977e+01|   -8.575518|  6.5732e-05|    0.044006|
|        1830|  4.6977e+01|  4.6977e+01|   -8.577490|  6.5207e-05|    0.043942|
|        1840|  4.6977e+01|  4.6977e+01|   -8.579345|  6.4673e-05|    0.043879|
|        1850|  4.6977e+01|  4.6977e+01|   -8.581039|  6.4125e-05|    0.043815|
|        1860|  4.6977e+01|  4.6977e+01|   -8.582541|  6.3588e-05|    0.043752|
|        1870|  4.6977e+01|  4.6977e+01|   -8.583867|  6.3068e-05|    0.043688|
|        1880|  4.6977e+01|  4.6977e+01|   -8.584851|  6.2564e-05|    0.043625|
|        1890|  4.6977e+01|  4.6977e+01|   -8.585699|  6.2073e-05|    0.043562|
|        1900|  4.6977e+01|  4.6977e+01|   -8.586510|  6.3778e-05|    0.043499|
|        1910|  4.6977e+01|  4.6977e+01|   -8.587414|  6.4978e-05|    0.043436|
|        1920|  4.6977e+01|  4.6977e+01|   -8.588406|  6.5447e-05|    0.043373|
|        1930|  4.6977e+01|  4.6977e+01|   -8.589430|  6.5167e-05|    0.043310|
|        1940|  4.6977e+01|  4.6977e+01|   -8.590584|  6.4875e-05|    0.043247|
|        1950|  4.6977e+01|  4.6977e+01|   -8.591939|  6.4565e-05|    0.043185|
|        1960|  4.6977e+01|  4.6977e+01|   -8.593516|  6.4267e-05|    0.043123|
|        1970|  4.6977e+01|  4.6977e+01|   -8.595272|  6.3994e-05|    0.043061|
|        1980|  4.6977e+01|  4.6977e+01|   -8.597242|  6.3749e-05|    0.043000|
|        1990|  4.6977e+01|  4.6977e+01|   -8.599459|  6.3533e-05|    0.042939|
|        2000|  4.6977e+01|  4.6977e+01|   -8.601807|  6.3313e-05|    0.042878|
+-----------------------------------------------------------------------+
|        File Writing Summary       |              Filename             |
+-----------------------------------------------------------------------+
|SU2 binary restart                 |restart_flow_G5.dat                |
|Paraview                           |flow_G5.vtu                        |
|Paraview surface                   |surface_flow_G5.vtu                |
+-----------------------------------------------------------------------+
+-----------------------------------------------------------------------------+
|  Inner_Iter|     Min CFL|     Max CFL|      rms[P]|  Cauchy[CD]|          CD|
+-----------------------------------------------------------------------------+
|        2010|  4.6977e+01|  4.6977e+01|   -8.604086|  6.3080e-05|    0.042817|
|        2020|  4.6977e+01|  4.6977e+01|   -8.606239|  6.2849e-05|    0.042757|
|        2030|  4.6977e+01|  4.6977e+01|   -8.608392|  6.2628e-05|    0.042698|
|        2040|  4.6977e+01|  4.6977e+01|   -8.610608|  6.2417e-05|    0.042638|
|        2050|  4.6977e+01|  4.6977e+01|   -8.612798|  6.2206e-05|    0.042579|
|        2060|  4.6977e+01|  4.6977e+01|   -8.614805|  6.1985e-05|    0.042521|
|        2070|  4.6977e+01|  4.6977e+01|   -8.616712|  6.1756e-05|    0.042462|
|        2080|  4.6977e+01|  4.6977e+01|   -8.618494|  6.1520e-05|    0.042404|
|        2090|  4.6977e+01|  4.6977e+01|   -8.620252|  6.1275e-05|    0.042347|
|        2100|  4.6977e+01|  4.6977e+01|   -8.621940|  6.1020e-05|    0.042290|
|        2110|  4.6977e+01|  4.6977e+01|   -8.623576|  6.0756e-05|    0.042233|
|        2120|  4.6977e+01|  4.6977e+01|   -8.625241|  6.0488e-05|    0.042176|
|        2130|  4.6977e+01|  4.6977e+01|   -8.626947|  6.0217e-05|    0.042120|
|        2140|  4.6977e+01|  4.6977e+01|   -8.628757|  5.9943e-05|    0.042063|
|        2150|  4.6977e+01|  4.6977e+01|   -8.630616|  5.9659e-05|    0.042007|
|        2160|  4.6977e+01|  4.6977e+01|   -8.632482|  5.9364e-05|    0.041952|
|        2170|  4.6977e+01|  4.6977e+01|   -8.634366|  5.9061e-05|    0.041896|
|        2180|  4.6977e+01|  4.6977e+01|   -8.636346|  5.8753e-05|    0.041841|
|        2190|  4.6977e+01|  4.6977e+01|   -8.638381|  5.8442e-05|    0.041786|
|        2200|  4.6977e+01|  4.6977e+01|   -8.640467|  5.8131e-05|    0.041732|
+-----------------------------------------------------------------------+
|        File Writing Summary       |              Filename             |
+-----------------------------------------------------------------------+
|SU2 binary restart                 |restart_flow_G5.dat                |
|Paraview                           |flow_G5.vtu                        |
|Paraview surface                   |surface_flow_G5.vtu                |
+-----------------------------------------------------------------------+
+-----------------------------------------------------------------------------+
|  Inner_Iter|     Min CFL|     Max CFL|      rms[P]|  Cauchy[CD]|          CD|
+-----------------------------------------------------------------------------+
|        2210|  4.6977e+01|  4.6977e+01|   -8.642514|  5.7823e-05|    0.041678|
|        2220|  4.6977e+01|  4.6977e+01|   -8.644552|  5.7516e-05|    0.041623|
|        2230|  4.6977e+01|  4.6977e+01|   -8.646570|  5.7210e-05|    0.041570|
|        2240|  4.6977e+01|  4.6977e+01|   -8.648514|  5.6905e-05|    0.041516|
|        2250|  4.6977e+01|  4.6977e+01|   -8.650507|  5.6601e-05|    0.041463|
|        2260|  4.6977e+01|  4.6977e+01|   -8.652549|  5.6300e-05|    0.041410|
|        2270|  4.6977e+01|  4.6977e+01|   -8.654614|  5.6002e-05|    0.041357|
|        2280|  4.6977e+01|  4.6977e+01|   -8.656771|  5.5705e-05|    0.041305|
|        2290|  4.6977e+01|  4.6977e+01|   -8.658934|  5.5408e-05|    0.041253|
|        2300|  4.6977e+01|  4.6977e+01|   -8.661142|  5.5112e-05|    0.041201|
|        2310|  4.6977e+01|  4.6977e+01|   -8.663326|  5.4819e-05|    0.041150|
|        2320|  4.6977e+01|  4.6977e+01|   -8.665525|  5.4528e-05|    0.041099|
|        2330|  4.6977e+01|  4.6977e+01|   -8.667728|  5.4240e-05|    0.041048|
|        2340|  4.6977e+01|  4.6977e+01|   -8.669990|  5.3954e-05|    0.040998|
|        2350|  4.6977e+01|  4.6977e+01|   -8.672264|  5.3670e-05|    0.040948|
|        2360|  4.6977e+01|  4.6977e+01|   -8.674513|  5.3386e-05|    0.040898|
|        2370|  4.6977e+01|  4.6977e+01|   -8.676793|  5.3100e-05|    0.040849|
|        2380|  4.6977e+01|  4.6977e+01|   -8.679055|  5.2812e-05|    0.040799|
|        2390|  4.6977e+01|  4.6977e+01|   -8.681306|  5.2523e-05|    0.040750|
|        2400|  4.6977e+01|  4.6977e+01|   -8.683470|  5.2230e-05|    0.040702|
+-----------------------------------------------------------------------+
|        File Writing Summary       |              Filename             |
+-----------------------------------------------------------------------+
|SU2 binary restart                 |restart_flow_G5.dat                |
|Paraview                           |flow_G5.vtu                        |
|Paraview surface                   |surface_flow_G5.vtu                |
+-----------------------------------------------------------------------+
+-----------------------------------------------------------------------------+
|  Inner_Iter|     Min CFL|     Max CFL|      rms[P]|  Cauchy[CD]|          CD|
+-----------------------------------------------------------------------------+
|        2410|  4.6977e+01|  4.6977e+01|   -8.685580|  5.1936e-05|    0.040653|
|        2420|  4.6977e+01|  4.6977e+01|   -8.687616|  5.1641e-05|    0.040605|
|        2430|  4.6977e+01|  4.6977e+01|   -8.689637|  5.1347e-05|    0.040558|
|        2440|  4.6977e+01|  4.6977e+01|   -8.691569|  5.1053e-05|    0.040510|
|        2450|  4.6977e+01|  4.6977e+01|   -8.693461|  5.0761e-05|    0.040463|
|        2460|  4.6977e+01|  4.6977e+01|   -8.695316|  5.0467e-05|    0.040416|
|        2470|  4.6977e+01|  4.6977e+01|   -8.697169|  5.0173e-05|    0.040369|
|        2480|  4.6977e+01|  4.6977e+01|   -8.699048|  4.9877e-05|    0.040323|
|        2490|  4.6977e+01|  4.6977e+01|   -8.700929|  4.9580e-05|    0.040277|
|        2500|  4.6977e+01|  4.6977e+01|   -8.702852|  4.9282e-05|    0.040231|
|        2510|  4.6977e+01|  4.6977e+01|   -8.704821|  4.8985e-05|    0.040185|
|        2520|  4.6977e+01|  4.6977e+01|   -8.705630|  4.8687e-05|    0.040140|
|        2530|  4.6977e+01|  4.6977e+01|   -8.707052|  4.8390e-05|    0.040095|
|        2540|  4.6977e+01|  4.6977e+01|   -8.708945|  4.8097e-05|    0.040051|
|        2550|  4.6977e+01|  4.6977e+01|   -8.711343|  4.7805e-05|    0.040006|
|        2560|  4.6977e+01|  4.6977e+01|   -8.713907|  4.7514e-05|    0.039962|
|        2570|  4.6977e+01|  4.6977e+01|   -8.716244|  4.7225e-05|    0.039919|
|        2580|  4.6977e+01|  4.6977e+01|   -8.718299|  4.6937e-05|    0.039875|
|        2590|  4.6977e+01|  4.6977e+01|   -8.720323|  4.6649e-05|    0.039832|
|        2600|  4.6977e+01|  4.6977e+01|   -8.722487|  4.6362e-05|    0.039789|
+-----------------------------------------------------------------------+
|        File Writing Summary       |              Filename             |
+-----------------------------------------------------------------------+
|SU2 binary restart                 |restart_flow_G5.dat                |
|Paraview                           |flow_G5.vtu                        |
|Paraview surface                   |surface_flow_G5.vtu                |
+-----------------------------------------------------------------------+
+-----------------------------------------------------------------------------+
|  Inner_Iter|     Min CFL|     Max CFL|      rms[P]|  Cauchy[CD]|          CD|
+-----------------------------------------------------------------------------+
|        2610|  4.6977e+01|  4.6977e+01|   -8.724771|  4.6075e-05|    0.039746|
|        2620|  4.6977e+01|  4.6977e+01|   -8.727134|  4.5789e-05|    0.039704|
|        2630|  4.6977e+01|  4.6977e+01|   -8.729454|  4.5503e-05|    0.039662|
|        2640|  4.6977e+01|  4.6977e+01|   -8.731685|  4.5219e-05|    0.039620|
|        2650|  4.6977e+01|  4.6977e+01|   -8.733903|  4.4938e-05|    0.039578|
|        2660|  4.6977e+01|  4.6977e+01|   -8.736138|  4.4659e-05|    0.039537|
|        2670|  4.6977e+01|  4.6977e+01|   -8.738384|  4.4382e-05|    0.039496|
|        2680|  4.6977e+01|  4.6977e+01|   -8.740574|  4.4106e-05|    0.039455|
|        2690|  4.6977e+01|  4.6977e+01|   -8.742741|  4.3832e-05|    0.039414|
|        2700|  4.6977e+01|  4.6977e+01|   -8.744959|  4.3558e-05|    0.039374|
|        2710|  4.6977e+01|  4.6977e+01|   -8.747163|  4.3284e-05|    0.039334|
|        2720|  4.6977e+01|  4.6977e+01|   -8.749350|  4.3012e-05|    0.039294|
|        2730|  4.6977e+01|  4.6977e+01|   -8.751491|  4.2740e-05|    0.039254|
|        2740|  4.6977e+01|  4.6977e+01|   -8.753661|  4.2471e-05|    0.039215|
|        2750|  4.6977e+01|  4.6977e+01|   -8.755842|  4.2203e-05|    0.039176|
|        2760|  4.6977e+01|  4.6977e+01|   -8.758011|  4.1937e-05|    0.039137|
|        2770|  4.6977e+01|  4.6977e+01|   -8.760070|  4.1673e-05|    0.039098|
|        2780|  4.6977e+01|  4.6977e+01|   -8.762126|  4.1411e-05|    0.039060|
|        2790|  4.6977e+01|  4.6977e+01|   -8.764144|  4.1150e-05|    0.039022|
|        2800|  4.6977e+01|  4.6977e+01|   -8.766203|  4.0892e-05|    0.038984|
+-----------------------------------------------------------------------+
|        File Writing Summary       |              Filename             |
+-----------------------------------------------------------------------+
|SU2 binary restart                 |restart_flow_G5.dat                |
|Paraview                           |flow_G5.vtu                        |
|Paraview surface                   |surface_flow_G5.vtu                |
+-----------------------------------------------------------------------+
+-----------------------------------------------------------------------------+
|  Inner_Iter|     Min CFL|     Max CFL|      rms[P]|  Cauchy[CD]|          CD|
+-----------------------------------------------------------------------------+
|        2810|  4.6977e+01|  4.6977e+01|   -8.768266|  4.0635e-05|    0.038946|
|        2820|  4.6977e+01|  4.6977e+01|   -8.770324|  4.0379e-05|    0.038909|
|        2830|  4.6977e+01|  4.6977e+01|   -8.772373|  4.0123e-05|    0.038872|
|        2840|  4.6977e+01|  4.6977e+01|   -8.774497|  3.9868e-05|    0.038835|
|        2850|  4.6977e+01|  4.6977e+01|   -8.776575|  3.9614e-05|    0.038799|
|        2860|  4.6977e+01|  4.6977e+01|   -8.778704|  3.9362e-05|    0.038762|
|        2870|  4.6977e+01|  4.6977e+01|   -8.780834|  3.9110e-05|    0.038726|
|        2880|  4.6977e+01|  4.6977e+01|   -8.782965|  3.8859e-05|    0.038690|
|        2890|  4.6977e+01|  4.6977e+01|   -8.785083|  3.8609e-05|    0.038655|
|        2900|  4.6977e+01|  4.6977e+01|   -8.787202|  3.8361e-05|    0.038619|
|        2910|  4.6977e+01|  4.6977e+01|   -8.789313|  3.8114e-05|    0.038584|
|        2920|  4.6977e+01|  4.6977e+01|   -8.791502|  3.7868e-05|    0.038549|
|        2930|  4.6977e+01|  4.6977e+01|   -8.793712|  3.7624e-05|    0.038514|
|        2940|  4.6977e+01|  4.6977e+01|   -8.795968|  3.7380e-05|    0.038480|
|        2950|  4.6977e+01|  4.6977e+01|   -8.798209|  3.7137e-05|    0.038445|
|        2960|  4.6977e+01|  4.6977e+01|   -8.800455|  3.6895e-05|    0.038411|
|        2970|  4.6977e+01|  4.6977e+01|   -8.802743|  3.6653e-05|    0.038378|
|        2980|  4.6977e+01|  4.6977e+01|   -8.805046|  3.6412e-05|    0.038344|
|        2990|  4.6977e+01|  4.6977e+01|   -8.807343|  3.6173e-05|    0.038310|
|        3000|  4.6977e+01|  4.6977e+01|   -8.809674|  3.5935e-05|    0.038277|
+-----------------------------------------------------------------------+
|        File Writing Summary       |              Filename             |
+-----------------------------------------------------------------------+
|SU2 binary restart                 |restart_flow_G5.dat                |
|Paraview                           |flow_G5.vtu                        |
|Paraview surface                   |surface_flow_G5.vtu                |
+-----------------------------------------------------------------------+
+-----------------------------------------------------------------------------+
|  Inner_Iter|     Min CFL|     Max CFL|      rms[P]|  Cauchy[CD]|          CD|
+-----------------------------------------------------------------------------+
|        3010|  4.6977e+01|  4.6977e+01|   -8.811908|  3.5700e-05|    0.038244|
|        3020|  4.6977e+01|  4.6977e+01|   -8.814111|  3.5468e-05|    0.038212|
|        3030|  4.6977e+01|  4.6977e+01|   -8.816320|  3.5236e-05|    0.038179|
|        3040|  4.6977e+01|  4.6977e+01|   -8.818554|  3.5005e-05|    0.038147|
|        3050|  4.6977e+01|  4.6977e+01|   -8.820795|  3.4776e-05|    0.038115|
|        3060|  4.6977e+01|  4.6977e+01|   -8.823072|  3.4547e-05|    0.038083|
|        3070|  4.6977e+01|  4.6977e+01|   -8.825315|  3.4321e-05|    0.038051|
|        3080|  4.6977e+01|  4.6977e+01|   -8.827580|  3.4097e-05|    0.038020|
|        3090|  4.6977e+01|  4.6977e+01|   -8.829825|  3.3874e-05|    0.037988|
|        3100|  4.6977e+01|  4.6977e+01|   -8.832113|  3.3653e-05|    0.037957|
|        3110|  4.6977e+01|  4.6977e+01|   -8.834399|  3.3432e-05|    0.037926|
|        3120|  4.6977e+01|  4.6977e+01|   -8.836715|  3.3213e-05|    0.037896|
|        3130|  4.6977e+01|  4.6977e+01|   -8.839000|  3.2996e-05|    0.037865|
|        3140|  4.6977e+01|  4.6977e+01|   -8.841251|  3.2781e-05|    0.037835|
|        3150|  4.6977e+01|  4.6977e+01|   -8.843472|  3.2567e-05|    0.037805|
|        3160|  4.6977e+01|  4.6977e+01|   -8.845667|  3.2353e-05|    0.037775|
|        3170|  4.6977e+01|  4.6977e+01|   -8.847871|  3.2140e-05|    0.037746|
|        3180|  4.6977e+01|  4.6977e+01|   -8.850082|  3.1927e-05|    0.037716|
|        3190|  4.6977e+01|  4.6977e+01|   -8.852299|  3.1716e-05|    0.037687|
|        3200|  4.6977e+01|  4.6977e+01|   -8.854570|  3.1507e-05|    0.037658|
+-----------------------------------------------------------------------+
|        File Writing Summary       |              Filename             |
+-----------------------------------------------------------------------+
|SU2 binary restart                 |restart_flow_G5.dat                |
|Paraview                           |flow_G5.vtu                        |
|Paraview surface                   |surface_flow_G5.vtu                |
+-----------------------------------------------------------------------+
+-----------------------------------------------------------------------------+
|  Inner_Iter|     Min CFL|     Max CFL|      rms[P]|  Cauchy[CD]|          CD|
+-----------------------------------------------------------------------------+
|        3210|  4.6977e+01|  4.6977e+01|   -8.856903|  3.1299e-05|    0.037629|
|        3220|  4.6977e+01|  4.6977e+01|   -8.859262|  3.1092e-05|    0.037600|
|        3230|  4.6977e+01|  4.6977e+01|   -8.861564|  3.0886e-05|    0.037572|
|        3240|  4.6977e+01|  4.6977e+01|   -8.863875|  3.0681e-05|    0.037543|
|        3250|  4.6977e+01|  4.6977e+01|   -8.866178|  3.0478e-05|    0.037515|
|        3260|  4.6977e+01|  4.6977e+01|   -8.868467|  3.0275e-05|    0.037487|
|        3270|  4.6977e+01|  4.6977e+01|   -8.870782|  3.0074e-05|    0.037460|
|        3280|  4.6977e+01|  4.6977e+01|   -8.873090|  2.9872e-05|    0.037432|
|        3290|  4.6977e+01|  4.6977e+01|   -8.875406|  2.9673e-05|    0.037405|
|        3300|  4.6977e+01|  4.6977e+01|   -8.877760|  2.9474e-05|    0.037378|
|        3310|  4.6977e+01|  4.6977e+01|   -8.880135|  2.9277e-05|    0.037351|
|        3320|  4.6977e+01|  4.6977e+01|   -8.882524|  2.9082e-05|    0.037324|
|        3330|  4.6977e+01|  4.6977e+01|   -8.884936|  2.8888e-05|    0.037297|
|        3340|  4.6977e+01|  4.6977e+01|   -8.887313|  2.8695e-05|    0.037271|
|        3350|  4.6977e+01|  4.6977e+01|   -8.889726|  2.8503e-05|    0.037245|
|        3360|  4.6977e+01|  4.6977e+01|   -8.892124|  2.8314e-05|    0.037219|
|        3370|  4.6977e+01|  4.6977e+01|   -8.894506|  2.8126e-05|    0.037193|
|        3380|  4.6977e+01|  4.6977e+01|   -8.896864|  2.7939e-05|    0.037167|
|        3390|  4.6977e+01|  4.6977e+01|   -8.899208|  2.7752e-05|    0.037141|
|        3400|  4.6977e+01|  4.6977e+01|   -8.901551|  2.7566e-05|    0.037116|
+-----------------------------------------------------------------------+
|        File Writing Summary       |              Filename             |
+-----------------------------------------------------------------------+
|SU2 binary restart                 |restart_flow_G5.dat                |
|Paraview                           |flow_G5.vtu                        |
|Paraview surface                   |surface_flow_G5.vtu                |
+-----------------------------------------------------------------------+
+-----------------------------------------------------------------------------+
|  Inner_Iter|     Min CFL|     Max CFL|      rms[P]|  Cauchy[CD]|          CD|
+-----------------------------------------------------------------------------+
|        3410|  4.6977e+01|  4.6977e+01|   -8.903921|  2.7380e-05|    0.037091|
|        3420|  4.6977e+01|  4.6977e+01|   -8.906250|  2.7195e-05|    0.037066|
|        3430|  4.6977e+01|  4.6977e+01|   -8.908552|  2.7011e-05|    0.037041|
|        3440|  4.6977e+01|  4.6977e+01|   -8.910897|  2.6828e-05|    0.037016|
|        3450|  4.6977e+01|  4.6977e+01|   -8.913257|  2.6646e-05|    0.036992|
|        3460|  4.6977e+01|  4.6977e+01|   -8.915651|  2.6466e-05|    0.036967|
|        3470|  4.6977e+01|  4.6977e+01|   -8.918076|  2.6288e-05|    0.036943|
|        3480|  4.6977e+01|  4.6977e+01|   -8.920536|  2.6111e-05|    0.036919|
|        3490|  4.6977e+01|  4.6977e+01|   -8.922942|  2.5937e-05|    0.036895|
|        3500|  4.6977e+01|  4.6977e+01|   -8.925339|  2.5763e-05|    0.036871|
|        3510|  4.6977e+01|  4.6977e+01|   -8.927730|  2.5590e-05|    0.036848|
|        3520|  4.6977e+01|  4.6977e+01|   -8.930152|  2.5418e-05|    0.036824|
|        3530|  4.6977e+01|  4.6977e+01|   -8.932616|  2.5247e-05|    0.036801|
|        3540|  4.6977e+01|  4.6977e+01|   -8.935053|  2.5076e-05|    0.036778|
|        3550|  4.6977e+01|  4.6977e+01|   -8.937457|  2.4906e-05|    0.036755|
|        3560|  4.6977e+01|  4.6977e+01|   -8.939851|  2.4736e-05|    0.036732|
|        3570|  4.6977e+01|  4.6977e+01|   -8.942237|  2.4568e-05|    0.036710|
|        3580|  4.6977e+01|  4.6977e+01|   -8.944656|  2.4401e-05|    0.036687|
|        3590|  4.6977e+01|  4.6977e+01|   -8.947087|  2.4236e-05|    0.036665|
|        3600|  4.6977e+01|  4.6977e+01|   -8.949590|  2.4072e-05|    0.036643|
+-----------------------------------------------------------------------+
|        File Writing Summary       |              Filename             |
+-----------------------------------------------------------------------+
|SU2 binary restart                 |restart_flow_G5.dat                |
|Paraview                           |flow_G5.vtu                        |
|Paraview surface                   |surface_flow_G5.vtu                |
+-----------------------------------------------------------------------+
+-----------------------------------------------------------------------------+
|  Inner_Iter|     Min CFL|     Max CFL|      rms[P]|  Cauchy[CD]|          CD|
+-----------------------------------------------------------------------------+
|        3610|  4.6977e+01|  4.6977e+01|   -8.952043|  2.3909e-05|    0.036621|
|        3620|  4.6977e+01|  4.6977e+01|   -8.954498|  2.3747e-05|    0.036599|
|        3630|  4.6977e+01|  4.6977e+01|   -8.956970|  2.3585e-05|    0.036577|
|        3640|  4.6977e+01|  4.6977e+01|   -8.959454|  2.3425e-05|    0.036556|
|        3650|  4.6977e+01|  4.6977e+01|   -8.961968|  2.3266e-05|    0.036534|
|        3660|  4.6977e+01|  4.6977e+01|   -8.964484|  2.3108e-05|    0.036513|
|        3670|  4.6977e+01|  4.6977e+01|   -8.966961|  2.2950e-05|    0.036492|
|        3680|  4.6977e+01|  4.6977e+01|   -8.969424|  2.2794e-05|    0.036471|
|        3690|  4.6977e+01|  4.6977e+01|   -8.971868|  2.2638e-05|    0.036450|
|        3700|  4.6977e+01|  4.6977e+01|   -8.974339|  2.2484e-05|    0.036430|
|        3710|  4.6977e+01|  4.6977e+01|   -8.976862|  2.2330e-05|    0.036409|
|        3720|  4.6977e+01|  4.6977e+01|   -8.979384|  2.2177e-05|    0.036389|
|        3730|  4.6977e+01|  4.6977e+01|   -8.981929|  2.2025e-05|    0.036368|
|        3740|  4.6977e+01|  4.6977e+01|   -8.984447|  2.1873e-05|    0.036348|
|        3750|  4.6977e+01|  4.6977e+01|   -8.986940|  2.1723e-05|    0.036328|
|        3760|  4.6977e+01|  4.6977e+01|   -8.989430|  2.1575e-05|    0.036308|
|        3770|  4.6977e+01|  4.6977e+01|   -8.991947|  2.1429e-05|    0.036289|
|        3780|  4.6977e+01|  4.6977e+01|   -8.994518|  2.1284e-05|    0.036269|
|        3790|  4.6977e+01|  4.6977e+01|   -8.997096|  2.1140e-05|    0.036250|
|        3800|  4.6977e+01|  4.6977e+01|   -8.999607|  2.0997e-05|    0.036230|
+-----------------------------------------------------------------------+
|        File Writing Summary       |              Filename             |
+-----------------------------------------------------------------------+
|SU2 binary restart                 |restart_flow_G5.dat                |
|Paraview                           |flow_G5.vtu                        |
|Paraview surface                   |surface_flow_G5.vtu                |
+-----------------------------------------------------------------------+
+-----------------------------------------------------------------------------+
|  Inner_Iter|     Min CFL|     Max CFL|      rms[P]|  Cauchy[CD]|          CD|
+-----------------------------------------------------------------------------+
|        3810|  4.6977e+01|  4.6977e+01|   -9.002069|  2.0854e-05|    0.036211|
|        3820|  4.6977e+01|  4.6977e+01|   -9.004508|  2.0712e-05|    0.036192|
|        3830|  4.6977e+01|  4.6977e+01|   -9.006999|  2.0570e-05|    0.036173|
|        3840|  4.6977e+01|  4.6977e+01|   -9.009504|  2.0429e-05|    0.036154|
|        3850|  4.6977e+01|  4.6977e+01|   -9.012031|  2.0287e-05|    0.036136|
|        3860|  4.6977e+01|  4.6977e+01|   -9.014558|  2.0146e-05|    0.036117|
|        3870|  4.6977e+01|  4.6977e+01|   -9.017097|  2.0006e-05|    0.036099|
|        3880|  4.6977e+01|  4.6977e+01|   -9.019620|  1.9868e-05|    0.036081|
|        3890|  4.6977e+01|  4.6977e+01|   -9.022169|  1.9730e-05|    0.036062|
|        3900|  4.6977e+01|  4.6977e+01|   -9.024720|  1.9594e-05|    0.036044|
|        3910|  4.6977e+01|  4.6977e+01|   -9.027301|  1.9460e-05|    0.036027|
|        3920|  4.6977e+01|  4.6977e+01|   -9.029865|  1.9327e-05|    0.036009|
|        3930|  4.6977e+01|  4.6977e+01|   -9.032440|  1.9195e-05|    0.035991|
|        3940|  4.6977e+01|  4.6977e+01|   -9.035030|  1.9064e-05|    0.035974|
|        3950|  4.6977e+01|  4.6977e+01|   -9.037628|  1.8934e-05|    0.035956|
|        3960|  4.6977e+01|  4.6977e+01|   -9.040238|  1.8804e-05|    0.035939|
|        3970|  4.6977e+01|  4.6977e+01|   -9.042846|  1.8675e-05|    0.035922|
|        3980|  4.6977e+01|  4.6977e+01|   -9.045447|  1.8547e-05|    0.035905|
|        3990|  4.6977e+01|  4.6977e+01|   -9.048037|  1.8419e-05|    0.035888|
|        4000|  4.6977e+01|  4.6977e+01|   -9.050624|  1.8291e-05|    0.035871|
+-----------------------------------------------------------------------+
|        File Writing Summary       |              Filename             |
+-----------------------------------------------------------------------+
|SU2 binary restart                 |restart_flow_G5.dat                |
|Paraview                           |flow_G5.vtu                        |
|Paraview surface                   |surface_flow_G5.vtu                |
+-----------------------------------------------------------------------+
+-----------------------------------------------------------------------------+
|  Inner_Iter|     Min CFL|     Max CFL|      rms[P]|  Cauchy[CD]|          CD|
+-----------------------------------------------------------------------------+
|        4010|  4.6977e+01|  4.6977e+01|   -9.053211|  1.8164e-05|    0.035854|
|        4020|  4.6977e+01|  4.6977e+01|   -9.055796|  1.8038e-05|    0.035838|
|        4030|  4.6977e+01|  4.6977e+01|   -9.058383|  1.7912e-05|    0.035821|
|        4040|  4.6977e+01|  4.6977e+01|   -9.060963|  1.7788e-05|    0.035805|
|        4050|  4.6977e+01|  4.6977e+01|   -9.063556|  1.7664e-05|    0.035789|
|        4060|  4.6977e+01|  4.6977e+01|   -9.066151|  1.7542e-05|    0.035772|
|        4070|  4.6977e+01|  4.6977e+01|   -9.068764|  1.7421e-05|    0.035756|
|        4080|  4.6977e+01|  4.6977e+01|   -9.071417|  1.7301e-05|    0.035741|
|        4090|  4.6977e+01|  4.6977e+01|   -9.074108|  1.7182e-05|    0.035725|
|        4100|  4.6977e+01|  4.6977e+01|   -9.076822|  1.7065e-05|    0.035709|
|        4110|  4.6977e+01|  4.6977e+01|   -9.079543|  1.6948e-05|    0.035693|
|        4120|  4.6977e+01|  4.6977e+01|   -9.082210|  1.6832e-05|    0.035678|
|        4130|  4.6977e+01|  4.6977e+01|   -9.084851|  1.6716e-05|    0.035663|
|        4140|  4.6977e+01|  4.6977e+01|   -9.087472|  1.6601e-05|    0.035647|
|        4150|  4.6977e+01|  4.6977e+01|   -9.090106|  1.6487e-05|    0.035632|
|        4160|  4.6977e+01|  4.6977e+01|   -9.092743|  1.6372e-05|    0.035617|
|        4170|  4.6977e+01|  4.6977e+01|   -9.095395|  1.6258e-05|    0.035602|
|        4180|  4.6977e+01|  4.6977e+01|   -9.098049|  1.6145e-05|    0.035588|
|        4190|  4.6977e+01|  4.6977e+01|   -9.100698|  1.6031e-05|    0.035573|
|        4200|  4.6977e+01|  4.6977e+01|   -9.103366|  1.5918e-05|    0.035558|
+-----------------------------------------------------------------------+
|        File Writing Summary       |              Filename             |
+-----------------------------------------------------------------------+
|SU2 binary restart                 |restart_flow_G5.dat                |
|Paraview                           |flow_G5.vtu                        |
|Paraview surface                   |surface_flow_G5.vtu                |
+-----------------------------------------------------------------------+
+-----------------------------------------------------------------------------+
|  Inner_Iter|     Min CFL|     Max CFL|      rms[P]|  Cauchy[CD]|          CD|
+-----------------------------------------------------------------------------+
|        4210|  4.6977e+01|  4.6977e+01|   -9.106044|  1.5806e-05|    0.035544|
|        4220|  4.6977e+01|  4.6977e+01|   -9.108702|  1.5695e-05|    0.035529|
|        4230|  4.6977e+01|  4.6977e+01|   -9.111366|  1.5586e-05|    0.035515|
|        4240|  4.6977e+01|  4.6977e+01|   -9.114064|  1.5478e-05|    0.035501|
|        4250|  4.6977e+01|  4.6977e+01|   -9.116810|  1.5370e-05|    0.035487|
|        4260|  4.6977e+01|  4.6977e+01|   -9.119563|  1.5264e-05|    0.035473|
|        4270|  4.6977e+01|  4.6977e+01|   -9.122280|  1.5158e-05|    0.035459|
|        4280|  4.6977e+01|  4.6977e+01|   -9.124942|  1.5052e-05|    0.035445|
|        4290|  4.6977e+01|  4.6977e+01|   -9.127547|  1.4948e-05|    0.035431|
|        4300|  4.6977e+01|  4.6977e+01|   -9.130181|  1.4843e-05|    0.035418|
|        4310|  4.6977e+01|  4.6977e+01|   -9.132871|  1.4740e-05|    0.035404|
|        4320|  4.6977e+01|  4.6977e+01|   -9.135631|  1.4637e-05|    0.035391|
|        4330|  4.6977e+01|  4.6977e+01|   -9.138402|  1.4534e-05|    0.035377|
|        4340|  4.6977e+01|  4.6977e+01|   -9.141145|  1.4432e-05|    0.035364|
|        4350|  4.6977e+01|  4.6977e+01|   -9.143858|  1.4331e-05|    0.035351|
|        4360|  4.6977e+01|  4.6977e+01|   -9.146553|  1.4231e-05|    0.035338|
|        4370|  4.6977e+01|  4.6977e+01|   -9.149273|  1.4132e-05|    0.035325|
|        4380|  4.6977e+01|  4.6977e+01|   -9.152014|  1.4035e-05|    0.035312|
|        4390|  4.6977e+01|  4.6977e+01|   -9.154780|  1.3938e-05|    0.035299|
|        4400|  4.6977e+01|  4.6977e+01|   -9.157551|  1.3842e-05|    0.035286|
+-----------------------------------------------------------------------+
|        File Writing Summary       |              Filename             |
+-----------------------------------------------------------------------+
|SU2 binary restart                 |restart_flow_G5.dat                |
|Paraview                           |flow_G5.vtu                        |
|Paraview surface                   |surface_flow_G5.vtu                |
+-----------------------------------------------------------------------+
+-----------------------------------------------------------------------------+
|  Inner_Iter|     Min CFL|     Max CFL|      rms[P]|  Cauchy[CD]|          CD|
+-----------------------------------------------------------------------------+
|        4410|  4.6977e+01|  4.6977e+01|   -9.160317|  1.3746e-05|    0.035274|
|        4420|  4.6977e+01|  4.6977e+01|   -9.163036|  1.3651e-05|    0.035261|
|        4430|  4.6977e+01|  4.6977e+01|   -9.165738|  1.3557e-05|    0.035249|
|        4440|  4.6977e+01|  4.6977e+01|   -9.168453|  1.3463e-05|    0.035236|
|        4450|  4.6977e+01|  4.6977e+01|   -9.171195|  1.3370e-05|    0.035224|
|        4460|  4.6977e+01|  4.6977e+01|   -9.173982|  1.3278e-05|    0.035212|
|        4470|  4.6977e+01|  4.6977e+01|   -9.176784|  1.3185e-05|    0.035200|
|        4480|  4.6977e+01|  4.6977e+01|   -9.179565|  1.3093e-05|    0.035188|
|        4490|  4.6977e+01|  4.6977e+01|   -9.182327|  1.3001e-05|    0.035176|
|        4500|  4.6977e+01|  4.6977e+01|   -9.185071|  1.2910e-05|    0.035164|
|        4510|  4.6977e+01|  4.6977e+01|   -9.187836|  1.2819e-05|    0.035152|
|        4520|  4.6977e+01|  4.6977e+01|   -9.190628|  1.2729e-05|    0.035141|
|        4530|  4.6977e+01|  4.6977e+01|   -9.193429|  1.2639e-05|    0.035129|
|        4540|  4.6977e+01|  4.6977e+01|   -9.196215|  1.2550e-05|    0.035117|
|        4550|  4.6977e+01|  4.6977e+01|   -9.198977|  1.2461e-05|    0.035106|
|        4560|  4.6977e+01|  4.6977e+01|   -9.201727|  1.2373e-05|    0.035095|
|        4570|  4.6977e+01|  4.6977e+01|   -9.204498|  1.2285e-05|    0.035083|
|        4580|  4.6977e+01|  4.6977e+01|   -9.207296|  1.2198e-05|    0.035072|
|        4590|  4.6977e+01|  4.6977e+01|   -9.210106|  1.2112e-05|    0.035061|
|        4600|  4.6977e+01|  4.6977e+01|   -9.212887|  1.2026e-05|    0.035050|
+-----------------------------------------------------------------------+
|        File Writing Summary       |              Filename             |
+-----------------------------------------------------------------------+
|SU2 binary restart                 |restart_flow_G5.dat                |
|Paraview                           |flow_G5.vtu                        |
|Paraview surface                   |surface_flow_G5.vtu                |
+-----------------------------------------------------------------------+
+-----------------------------------------------------------------------------+
|  Inner_Iter|     Min CFL|     Max CFL|      rms[P]|  Cauchy[CD]|          CD|
+-----------------------------------------------------------------------------+
|        4610|  4.6977e+01|  4.6977e+01|   -9.215661|  1.1940e-05|    0.035039|
|        4620|  4.6977e+01|  4.6977e+01|   -9.218435|  1.1855e-05|    0.035028|
|        4630|  4.6977e+01|  4.6977e+01|   -9.221257|  1.1771e-05|    0.035017|
|        4640|  4.6977e+01|  4.6977e+01|   -9.224099|  1.1688e-05|    0.035007|
|        4650|  4.6977e+01|  4.6977e+01|   -9.226964|  1.1605e-05|    0.034996|
|        4660|  4.6977e+01|  4.6977e+01|   -9.229822|  1.1523e-05|    0.034986|
|        4670|  4.6977e+01|  4.6977e+01|   -9.232660|  1.1442e-05|    0.034975|
|        4680|  4.6977e+01|  4.6977e+01|   -9.235488|  1.1361e-05|    0.034965|
|        4690|  4.6977e+01|  4.6977e+01|   -9.238329|  1.1282e-05|    0.034954|
|        4700|  4.6977e+01|  4.6977e+01|   -9.241184|  1.1203e-05|    0.034944|
|        4710|  4.6977e+01|  4.6977e+01|   -9.244068|  1.1126e-05|    0.034934|
|        4720|  4.6977e+01|  4.6977e+01|   -9.246957|  1.1048e-05|    0.034923|
|        4730|  4.6977e+01|  4.6977e+01|   -9.249825|  1.0971e-05|    0.034913|
|        4740|  4.6977e+01|  4.6977e+01|   -9.252675|  1.0895e-05|    0.034903|
|        4750|  4.6977e+01|  4.6977e+01|   -9.255514|  1.0820e-05|    0.034893|
|        4760|  4.6977e+01|  4.6977e+01|   -9.258352|  1.0745e-05|    0.034884|
|        4770|  4.6977e+01|  4.6977e+01|   -9.261226|  1.0671e-05|    0.034874|
|        4780|  4.6977e+01|  4.6977e+01|   -9.264100|  1.0597e-05|    0.034864|
|        4790|  4.6977e+01|  4.6977e+01|   -9.266964|  1.0523e-05|    0.034854|
|        4800|  4.6977e+01|  4.6977e+01|   -9.269812|  1.0450e-05|    0.034845|
+-----------------------------------------------------------------------+
|        File Writing Summary       |              Filename             |
+-----------------------------------------------------------------------+
|SU2 binary restart                 |restart_flow_G5.dat                |
|Paraview                           |flow_G5.vtu                        |
|Paraview surface                   |surface_flow_G5.vtu                |
+-----------------------------------------------------------------------+
+-----------------------------------------------------------------------------+
|  Inner_Iter|     Min CFL|     Max CFL|      rms[P]|  Cauchy[CD]|          CD|
+-----------------------------------------------------------------------------+
|        4810|  4.6977e+01|  4.6977e+01|   -9.272654|  1.0377e-05|    0.034835|
|        4820|  4.6977e+01|  4.6977e+01|   -9.275514|  1.0304e-05|    0.034826|
|        4830|  4.6977e+01|  4.6977e+01|   -9.278412|  1.0231e-05|    0.034816|
|        4840|  4.6977e+01|  4.6977e+01|   -9.281330|  1.0159e-05|    0.034807|
|        4850|  4.6977e+01|  4.6977e+01|   -9.284237|  1.0087e-05|    0.034798|
|        4860|  4.6977e+01|  4.6977e+01|   -9.287120|  1.0015e-05|    0.034789|
|        4870|  4.6977e+01|  4.6977e+01|   -9.289995|  9.9436e-06|    0.034780|
|        4880|  4.6977e+01|  4.6977e+01|   -9.292858|  9.8727e-06|    0.034771|
|        4890|  4.6977e+01|  4.6977e+01|   -9.295726|  9.8022e-06|    0.034762|
|        4900|  4.6977e+01|  4.6977e+01|   -9.298606|  9.7322e-06|    0.034753|
|        4910|  4.6977e+01|  4.6977e+01|   -9.301498|  9.6626e-06|    0.034744|
|        4920|  4.6977e+01|  4.6977e+01|   -9.304387|  9.5933e-06|    0.034735|
|        4930|  4.6977e+01|  4.6977e+01|   -9.307280|  9.5243e-06|    0.034726|
|        4940|  4.6977e+01|  4.6977e+01|   -9.310180|  9.4555e-06|    0.034718|
|        4950|  2.4239e+01|  2.4239e+01|   -9.328912|  9.1895e-06|    0.034714|
|        4960|  1.2507e+01|  1.2507e+01|   -9.331906|  8.9451e-06|    0.034710|
|        4970|  6.4532e+00|  6.4532e+00|   -9.315246|  8.7301e-06|    0.034705|
|        4980|  3.9957e+01|  3.9957e+01|   -9.331978|  8.4491e-06|    0.034702|
|        4990|  4.7948e+01|  4.7948e+01|   -9.320488|  8.3784e-06|    0.034694|
|        5000|  4.7948e+01|  4.7948e+01|   -9.322514|  8.3216e-06|    0.034685|
+-----------------------------------------------------------------------+
|        File Writing Summary       |              Filename             |
+-----------------------------------------------------------------------+
|SU2 binary restart                 |restart_flow_G5.dat                |
|Paraview                           |flow_G5.vtu                        |
|Paraview surface                   |surface_flow_G5.vtu                |
+-----------------------------------------------------------------------+
+-----------------------------------------------------------------------------+
|  Inner_Iter|     Min CFL|     Max CFL|      rms[P]|  Cauchy[CD]|          CD|
+-----------------------------------------------------------------------------+
|        5010|  4.7948e+01|  4.7948e+01|   -9.324593|  8.2694e-06|    0.034677|
|        5020|  4.7948e+01|  4.7948e+01|   -9.327223|  8.2227e-06|    0.034668|
|        5030|  4.7948e+01|  4.7948e+01|   -9.329678|  8.1725e-06|    0.034660|
|        5040|  4.7948e+01|  4.7948e+01|   -9.332394|  8.1166e-06|    0.034651|
|        5050|  4.7948e+01|  4.7948e+01|   -9.335270|  8.0610e-06|    0.034643|
|        5060|  4.7948e+01|  4.7948e+01|   -9.338210|  8.0098e-06|    0.034635|
|        5070|  4.7948e+01|  4.7948e+01|   -9.341234|  7.9608e-06|    0.034627|
|        5080|  4.7948e+01|  4.7948e+01|   -9.344295|  7.9120e-06|    0.034619|
|        5090|  4.7948e+01|  4.7948e+01|   -9.347311|  7.8633e-06|    0.034611|
|        5100|  4.7948e+01|  4.7948e+01|   -9.350332|  7.8138e-06|    0.034603|
|        5110|  4.7948e+01|  4.7948e+01|   -9.353430|  7.7651e-06|    0.034595|
|        5120|  4.7948e+01|  4.7948e+01|   -9.356518|  7.7179e-06|    0.034587|
|        5130|  4.7948e+01|  4.7948e+01|   -9.359450|  7.6706e-06|    0.034579|
|        5140|  4.7948e+01|  4.7948e+01|   -9.362273|  7.6225e-06|    0.034571|
|        5150|  4.7948e+01|  4.7948e+01|   -9.365184|  7.5752e-06|    0.034563|
|        5160|  4.7948e+01|  4.7948e+01|   -9.368298|  7.5291e-06|    0.034556|
|        5170|  4.7948e+01|  4.7948e+01|   -9.371501|  7.4835e-06|    0.034548|
|        5180|  4.7948e+01|  4.7948e+01|   -9.374576|  7.4378e-06|    0.034540|
|        5190|  4.7948e+01|  4.7948e+01|   -9.377454|  7.3918e-06|    0.034533|
|        5200|  4.7948e+01|  4.7948e+01|   -9.380308|  7.5435e-06|    0.034526|
+-----------------------------------------------------------------------+
|        File Writing Summary       |              Filename             |
+-----------------------------------------------------------------------+
|SU2 binary restart                 |restart_flow_G5.dat                |
|Paraview                           |flow_G5.vtu                        |
|Paraview surface                   |surface_flow_G5.vtu                |
+-----------------------------------------------------------------------+
+-----------------------------------------------------------------------------+
|  Inner_Iter|     Min CFL|     Max CFL|      rms[P]|  Cauchy[CD]|          CD|
+-----------------------------------------------------------------------------+
|        5210|  4.7948e+01|  4.7948e+01|   -9.383316|  7.6748e-06|    0.034518|
|        5220|  4.7948e+01|  4.7948e+01|   -9.386447|  7.7782e-06|    0.034511|
|        5230|  4.7948e+01|  4.7948e+01|   -9.389544|  7.9485e-06|    0.034503|
|        5240|  4.7948e+01|  4.7948e+01|   -9.392556|  7.9085e-06|    0.034496|
|        5250|  4.7948e+01|  4.7948e+01|   -9.395544|  7.8549e-06|    0.034489|
|        5260|  4.7948e+01|  4.7948e+01|   -9.398560|  7.7975e-06|    0.034482|
|        5270|  4.7948e+01|  4.7948e+01|   -9.401588|  7.7354e-06|    0.034475|
|        5280|  4.7948e+01|  4.7948e+01|   -9.404642|  7.6779e-06|    0.034468|
|        5290|  4.7948e+01|  4.7948e+01|   -9.407722|  7.6267e-06|    0.034461|
|        5300|  4.7948e+01|  4.7948e+01|   -9.410809|  7.5758e-06|    0.034454|
|        5310|  4.7948e+01|  4.7948e+01|   -9.413878|  7.5211e-06|    0.034447|
|        5320|  4.7948e+01|  4.7948e+01|   -9.416927|  7.4651e-06|    0.034440|
|        5330|  4.7948e+01|  4.7948e+01|   -9.419980|  7.4098e-06|    0.034433|
|        5340|  4.7948e+01|  4.7948e+01|   -9.423062|  7.3553e-06|    0.034427|
|        5350|  4.7948e+01|  4.7948e+01|   -9.426180|  7.3024e-06|    0.034420|
|        5360|  4.7948e+01|  4.7948e+01|   -9.429332|  7.2495e-06|    0.034413|
|        5370|  4.7948e+01|  4.7948e+01|   -9.432457|  7.1955e-06|    0.034407|
|        5380|  4.7948e+01|  4.7948e+01|   -9.435564|  7.1422e-06|    0.034400|
|        5390|  4.7948e+01|  4.7948e+01|   -9.438653|  7.0900e-06|    0.034394|
|        5400|  4.7948e+01|  4.7948e+01|   -9.441753|  7.0375e-06|    0.034387|
+-----------------------------------------------------------------------+
|        File Writing Summary       |              Filename             |
+-----------------------------------------------------------------------+
|SU2 binary restart                 |restart_flow_G5.dat                |
|Paraview                           |flow_G5.vtu                        |
|Paraview surface                   |surface_flow_G5.vtu                |
+-----------------------------------------------------------------------+
+-----------------------------------------------------------------------------+
|  Inner_Iter|     Min CFL|     Max CFL|      rms[P]|  Cauchy[CD]|          CD|
+-----------------------------------------------------------------------------+
|        5410|  4.7948e+01|  4.7948e+01|   -9.444867|  6.9843e-06|    0.034381|
|        5420|  4.7948e+01|  4.7948e+01|   -9.447987|  6.9312e-06|    0.034375|
|        5430|  4.7948e+01|  4.7948e+01|   -9.451118|  6.8790e-06|    0.034369|
|        5440|  4.7948e+01|  4.7948e+01|   -9.454236|  6.8275e-06|    0.034362|
|        5450|  4.7948e+01|  4.7948e+01|   -9.457344|  6.7765e-06|    0.034356|
|        5460|  4.7948e+01|  4.7948e+01|   -9.460448|  6.7251e-06|    0.034350|
|        5470|  4.7948e+01|  4.7948e+01|   -9.463546|  6.6733e-06|    0.034344|
|        5480|  4.7948e+01|  4.7948e+01|   -9.466671|  6.6219e-06|    0.034338|
|        5490|  4.7948e+01|  4.7948e+01|   -9.469806|  6.5714e-06|    0.034332|
|        5500|  4.7948e+01|  4.7948e+01|   -9.472941|  6.5217e-06|    0.034326|
|        5510|  4.7948e+01|  4.7948e+01|   -9.476052|  6.4724e-06|    0.034320|
|        5520|  4.7948e+01|  4.7948e+01|   -9.479167|  6.4232e-06|    0.034314|
|        5530|  4.7948e+01|  4.7948e+01|   -9.482276|  6.3743e-06|    0.034308|
|        5540|  4.7948e+01|  4.7948e+01|   -9.485361|  6.3259e-06|    0.034303|
|        5550|  4.7948e+01|  4.7948e+01|   -9.488426|  6.2781e-06|    0.034297|
|        5560|  4.7948e+01|  4.7948e+01|   -9.491494|  6.2308e-06|    0.034291|
|        5570|  4.7948e+01|  4.7948e+01|   -9.494566|  6.1840e-06|    0.034286|
|        5580|  4.7948e+01|  4.7948e+01|   -9.497640|  6.1375e-06|    0.034280|
|        5590|  4.7948e+01|  4.7948e+01|   -9.500715|  6.0914e-06|    0.034274|
|        5600|  4.7948e+01|  4.7948e+01|   -9.503789|  6.0458e-06|    0.034269|
+-----------------------------------------------------------------------+
|        File Writing Summary       |              Filename             |
+-----------------------------------------------------------------------+
|SU2 binary restart                 |restart_flow_G5.dat                |
|Paraview                           |flow_G5.vtu                        |
|Paraview surface                   |surface_flow_G5.vtu                |
+-----------------------------------------------------------------------+
+-----------------------------------------------------------------------------+
|  Inner_Iter|     Min CFL|     Max CFL|      rms[P]|  Cauchy[CD]|          CD|
+-----------------------------------------------------------------------------+
|        5610|  4.7948e+01|  4.7948e+01|   -9.506867|  6.0007e-06|    0.034263|
|        5620|  4.7948e+01|  4.7948e+01|   -9.509936|  5.9560e-06|    0.034258|
|        5630|  4.7948e+01|  4.7948e+01|   -9.512991|  5.9120e-06|    0.034253|
|        5640|  4.7948e+01|  4.7948e+01|   -9.516049|  5.8685e-06|    0.034247|
|        5650|  4.7948e+01|  4.7948e+01|   -9.519112|  5.8256e-06|    0.034242|
|        5660|  4.7948e+01|  4.7948e+01|   -9.522183|  5.7831e-06|    0.034237|
|        5670|  4.7948e+01|  4.7948e+01|   -9.525265|  5.7410e-06|    0.034231|
|        5680|  4.7948e+01|  4.7948e+01|   -9.528341|  5.6993e-06|    0.034226|
|        5690|  4.7948e+01|  4.7948e+01|   -9.531416|  5.6580e-06|    0.034221|
|        5700|  4.7948e+01|  4.7948e+01|   -9.534499|  5.6171e-06|    0.034216|
|        5710|  4.7948e+01|  4.7948e+01|   -9.537597|  5.5766e-06|    0.034211|
|        5720|  4.7948e+01|  4.7948e+01|   -9.540705|  5.5364e-06|    0.034206|
|        5730|  4.7948e+01|  4.7948e+01|   -9.543819|  5.4964e-06|    0.034200|
[...]
+-----------------------------------------------------------------------+
+-----------------------------------------------------------------------------+
|  Inner_Iter|     Min CFL|     Max CFL|      rms[P]|  Cauchy[CD]|          CD|
+-----------------------------------------------------------------------------+
|        6410|  4.7948e+01|  4.7948e+01|   -9.761564|  3.2990e-06|    0.033933|
|        6420|  4.7948e+01|  4.7948e+01|   -9.764754|  3.2744e-06|    0.033930|
|        6430|  4.7948e+01|  4.7948e+01|   -9.767947|  3.2500e-06|    0.033928|
|        6440|  4.7948e+01|  4.7948e+01|   -9.771139|  3.2258e-06|    0.033925|
|        6450|  4.7948e+01|  4.7948e+01|   -9.774327|  3.2019e-06|    0.033922|
|        6460|  4.7948e+01|  4.7948e+01|   -9.777515|  3.1782e-06|    0.033919|
|        6470|  4.7948e+01|  4.7948e+01|   -9.780707|  3.1547e-06|    0.033916|
|        6480|  4.7948e+01|  4.7948e+01|   -9.783910|  3.1314e-06|    0.033913|
|        6490|  4.7948e+01|  4.7948e+01|   -9.787136|  3.1083e-06|    0.033910|
|        6500|  4.7948e+01|  4.7948e+01|   -9.790379|  3.0854e-06|    0.033907|
|        6510|  4.7948e+01|  4.7948e+01|   -9.793636|  3.0627e-06|    0.033905|
|        6520|  4.7948e+01|  4.7948e+01|   -9.796885|  3.0402e-06|    0.033902|
|        6530|  4.7948e+01|  4.7948e+01|   -9.800133|  3.0180e-06|    0.033899|
|        6540|  4.7948e+01|  4.7948e+01|   -9.803379|  2.9959e-06|    0.033896|
|        6550|  4.7948e+01|  4.7948e+01|   -9.806631|  2.9741e-06|    0.033893|
|        6560|  4.7948e+01|  4.7948e+01|   -9.809900|  2.9525e-06|    0.033891|
|        6570|  4.7948e+01|  4.7948e+01|   -9.813184|  2.9311e-06|    0.033888|
|        6580|  4.7948e+01|  4.7948e+01|   -9.816478|  2.9098e-06|    0.033885|
|        6590|  4.7948e+01|  4.7948e+01|   -9.819775|  2.8887e-06|    0.033883|
|        6600|  4.7948e+01|  4.7948e+01|   -9.823059|  2.8678e-06|    0.033880|
+-----------------------------------------------------------------------+
|        File Writing Summary       |              Filename             |
+-----------------------------------------------------------------------+
|SU2 binary restart                 |restart_flow_G5.dat                |
|Paraview                           |flow_G5.vtu                        |
|Paraview surface                   |surface_flow_G5.vtu                |
+-----------------------------------------------------------------------+
+-----------------------------------------------------------------------------+
|  Inner_Iter|     Min CFL|     Max CFL|      rms[P]|  Cauchy[CD]|          CD|
+-----------------------------------------------------------------------------+
|        6610|  4.7948e+01|  4.7948e+01|   -9.826359|  2.8470e-06|    0.033878|
|        6620|  4.7948e+01|  4.7948e+01|   -9.829662|  2.8263e-06|    0.033875|
|        6630|  4.7948e+01|  4.7948e+01|   -9.832972|  2.8058e-06|    0.033872|
|        6640|  4.7948e+01|  4.7948e+01|   -9.836281|  2.7854e-06|    0.033870|
|        6650|  4.7948e+01|  4.7948e+01|   -9.839583|  2.7652e-06|    0.033867|
|        6660|  4.7948e+01|  4.7948e+01|   -9.842884|  2.7451e-06|    0.033865|
|        6670|  4.7948e+01|  4.7948e+01|   -9.846182|  2.7251e-06|    0.033862|
|        6680|  4.7948e+01|  4.7948e+01|   -9.849487|  2.7052e-06|    0.033860|
|        6690|  4.7948e+01|  4.7948e+01|   -9.852793|  2.6854e-06|    0.033857|
|        6700|  4.7948e+01|  4.7948e+01|   -9.856096|  2.6657e-06|    0.033855|
|        6710|  4.7948e+01|  4.7948e+01|   -9.859394|  2.6461e-06|    0.033853|
|        6720|  4.7948e+01|  4.7948e+01|   -9.862691|  2.6266e-06|    0.033850|
|        6730|  4.7948e+01|  4.7948e+01|   -9.865991|  2.6072e-06|    0.033848|
|        6740|  4.7948e+01|  4.7948e+01|   -9.869296|  2.5880e-06|    0.033845|
|        6750|  4.7948e+01|  4.7948e+01|   -9.872605|  2.5688e-06|    0.033843|
|        6760|  4.7948e+01|  4.7948e+01|   -9.875917|  2.5498e-06|    0.033841|
|        6770|  4.7948e+01|  4.7948e+01|   -9.879224|  2.5309e-06|    0.033838|
|        6780|  4.7948e+01|  4.7948e+01|   -9.882533|  2.5121e-06|    0.033836|
|        6790|  4.7948e+01|  4.7948e+01|   -9.885841|  2.4934e-06|    0.033834|
|        6800|  4.7948e+01|  4.7948e+01|   -9.889150|  2.4748e-06|    0.033832|
+-----------------------------------------------------------------------+
|        File Writing Summary       |              Filename             |
+-----------------------------------------------------------------------+
|SU2 binary restart                 |restart_flow_G5.dat                |
|Paraview                           |flow_G5.vtu                        |
|Paraview surface                   |surface_flow_G5.vtu                |
+-----------------------------------------------------------------------+
+-----------------------------------------------------------------------------+
|  Inner_Iter|     Min CFL|     Max CFL|      rms[P]|  Cauchy[CD]|          CD|
+-----------------------------------------------------------------------------+
|        6810|  4.7948e+01|  4.7948e+01|   -9.892456|  2.4563e-06|    0.033829|
|        6820|  4.7948e+01|  4.7948e+01|   -9.895791|  2.4379e-06|    0.033827|
|        6830|  4.7948e+01|  4.7948e+01|   -9.899109|  2.4196e-06|    0.033825|
|        6840|  4.7948e+01|  4.7948e+01|   -9.902429|  2.4014e-06|    0.033823|
|        6850|  4.7948e+01|  4.7948e+01|   -9.905745|  2.3833e-06|    0.033821|
|        6860|  4.7948e+01|  4.7948e+01|   -9.909059|  2.3653e-06|    0.033818|
|        6870|  4.7948e+01|  4.7948e+01|   -9.912373|  2.3474e-06|    0.033816|
|        6880|  4.7948e+01|  4.7948e+01|   -9.915690|  2.3296e-06|    0.033814|
|        6890|  4.7948e+01|  4.7948e+01|   -9.919012|  2.3119e-06|    0.033812|
|        6900|  4.7948e+01|  4.7948e+01|   -9.922331|  2.2943e-06|    0.033810|
|        6910|  4.7948e+01|  4.7948e+01|   -9.925654|  2.2767e-06|    0.033808|
|        6920|  4.7948e+01|  4.7948e+01|   -9.928971|  2.2593e-06|    0.033806|
|        6930|  4.7948e+01|  4.7948e+01|   -9.932281|  2.2420e-06|    0.033804|
|        6940|  4.7948e+01|  4.7948e+01|   -9.935586|  2.2248e-06|    0.033802|
|        6950|  4.7948e+01|  4.7948e+01|   -9.938892|  2.2077e-06|    0.033800|
|        6960|  4.7948e+01|  4.7948e+01|   -9.942206|  2.1908e-06|    0.033798|
|        6970|  4.7948e+01|  4.7948e+01|   -9.945526|  2.1740e-06|    0.033796|
|        6980|  4.7948e+01|  4.7948e+01|   -9.948846|  2.1573e-06|    0.033794|
|        6990|  4.7948e+01|  4.7948e+01|   -9.952167|  2.1408e-06|    0.033792|
|        7000|  4.7948e+01|  4.7948e+01|   -9.955469|  2.1243e-06|    0.033790|
+-----------------------------------------------------------------------+
|        File Writing Summary       |              Filename             |
+-----------------------------------------------------------------------+
|SU2 binary restart                 |restart_flow_G5.dat                |
|Paraview                           |flow_G5.vtu                        |
|Paraview surface                   |surface_flow_G5.vtu                |
+-----------------------------------------------------------------------+
+-----------------------------------------------------------------------------+
|  Inner_Iter|     Min CFL|     Max CFL|      rms[P]|  Cauchy[CD]|          CD|
+-----------------------------------------------------------------------------+
|        7010|  4.7948e+01|  4.7948e+01|   -9.958756|  2.1080e-06|    0.033788|
|        7020|  4.7948e+01|  4.7948e+01|   -9.962037|  2.0919e-06|    0.033786|
|        7030|  4.7948e+01|  4.7948e+01|   -9.965319|  2.0759e-06|    0.033784|
|        7040|  4.7948e+01|  4.7948e+01|   -9.968608|  2.0600e-06|    0.033782|
|        7050|  4.7948e+01|  4.7948e+01|   -9.971903|  2.0443e-06|    0.033781|
|        7060|  4.7948e+01|  4.7948e+01|   -9.975204|  2.0287e-06|    0.033779|
|        7070|  4.7948e+01|  4.7948e+01|   -9.978497|  2.0132e-06|    0.033777|
|        7080|  4.7948e+01|  4.7948e+01|   -9.981787|  1.9978e-06|    0.033775|
|        7090|  4.7948e+01|  4.7948e+01|   -9.985082|  1.9826e-06|    0.033773|
|        7100|  4.7948e+01|  4.7948e+01|   -9.988373|  1.9676e-06|    0.033771|
|        7110|  4.7948e+01|  4.7948e+01|   -9.991663|  1.9526e-06|    0.033770|
|        7120|  4.7948e+01|  4.7948e+01|   -9.994958|  1.9378e-06|    0.033768|
|        7130|  4.7948e+01|  4.7948e+01|   -9.998257|  1.9232e-06|    0.033766|
|        7140|  4.7948e+01|  4.7948e+01|  -10.001569|  1.9087e-06|    0.033764|
|        7150|  4.7948e+01|  4.7948e+01|  -10.004873|  1.8943e-06|    0.033763|
|        7160|  4.7948e+01|  4.7948e+01|  -10.008164|  1.8800e-06|    0.033761|
|        7170|  4.7948e+01|  4.7948e+01|  -10.011454|  1.8658e-06|    0.033759|
|        7180|  4.7948e+01|  4.7948e+01|  -10.014733|  1.8518e-06|    0.033758|
|        7190|  4.7948e+01|  4.7948e+01|  -10.018019|  1.8378e-06|    0.033756|
|        7200|  4.7948e+01|  4.7948e+01|  -10.021313|  1.8240e-06|    0.033754|
+-----------------------------------------------------------------------+
|        File Writing Summary       |              Filename             |
+-----------------------------------------------------------------------+
|SU2 binary restart                 |restart_flow_G5.dat                |
|Paraview                           |flow_G5.vtu                        |
|Paraview surface                   |surface_flow_G5.vtu                |
+-----------------------------------------------------------------------+
+-----------------------------------------------------------------------------+
|  Inner_Iter|     Min CFL|     Max CFL|      rms[P]|  Cauchy[CD]|          CD|
+-----------------------------------------------------------------------------+
|        7210|  4.7948e+01|  4.7948e+01|  -10.024613|  1.8102e-06|    0.033753|
|        7220|  4.7948e+01|  4.7948e+01|  -10.027920|  1.7966e-06|    0.033751|
|        7230|  4.7948e+01|  4.7948e+01|  -10.031233|  1.7830e-06|    0.033749|
|        7240|  4.7948e+01|  4.7948e+01|  -10.034544|  1.7695e-06|    0.033748|
|        7250|  4.7948e+01|  4.7948e+01|  -10.037854|  1.7561e-06|    0.033746|
|        7260|  4.7948e+01|  4.7948e+01|  -10.041172|  1.7428e-06|    0.033744|
|        7270|  4.7948e+01|  4.7948e+01|  -10.044492|  1.7296e-06|    0.033743|
|        7280|  4.7948e+01|  4.7948e+01|  -10.047810|  1.7165e-06|    0.033741|
|        7290|  4.7948e+01|  4.7948e+01|  -10.051131|  1.7034e-06|    0.033740|
|        7300|  4.7948e+01|  4.7948e+01|  -10.054452|  1.6905e-06|    0.033738|
|        7310|  4.7948e+01|  4.7948e+01|  -10.057773|  1.6776e-06|    0.033737|
|        7320|  4.7948e+01|  4.7948e+01|  -10.061096|  1.6649e-06|    0.033735|
|        7330|  4.7948e+01|  4.7948e+01|  -10.064425|  1.6522e-06|    0.033734|
|        7340|  4.7948e+01|  4.7948e+01|  -10.067756|  1.6396e-06|    0.033732|
|        7350|  4.7948e+01|  4.7948e+01|  -10.071089|  1.6271e-06|    0.033731|
|        7360|  4.7948e+01|  4.7948e+01|  -10.074424|  1.6146e-06|    0.033729|
|        7370|  4.7948e+01|  4.7948e+01|  -10.077763|  1.6022e-06|    0.033728|
|        7380|  4.7948e+01|  4.7948e+01|  -10.081104|  1.5900e-06|    0.033726|
|        7390|  4.7948e+01|  4.7948e+01|  -10.084446|  1.5777e-06|    0.033725|
|        7400|  4.7948e+01|  4.7948e+01|  -10.087784|  1.5656e-06|    0.033724|
+-----------------------------------------------------------------------+
|        File Writing Summary       |              Filename             |
+-----------------------------------------------------------------------+
|SU2 binary restart                 |restart_flow_G5.dat                |
|Paraview                           |flow_G5.vtu                        |
|Paraview surface                   |surface_flow_G5.vtu                |
+-----------------------------------------------------------------------+
+-----------------------------------------------------------------------------+
|  Inner_Iter|     Min CFL|     Max CFL|      rms[P]|  Cauchy[CD]|          CD|
+-----------------------------------------------------------------------------+
|        7410|  4.7948e+01|  4.7948e+01|  -10.091120|  1.5536e-06|    0.033722|
|        7420|  4.7948e+01|  4.7948e+01|  -10.094451|  1.5416e-06|    0.033721|
|        7430|  4.7948e+01|  4.7948e+01|  -10.097786|  1.5297e-06|    0.033719|
|        7440|  4.7948e+01|  4.7948e+01|  -10.101126|  1.5179e-06|    0.033718|
|        7450|  4.7948e+01|  4.7948e+01|  -10.104462|  1.5062e-06|    0.033717|
|        7460|  4.7948e+01|  4.7948e+01|  -10.107782|  1.4945e-06|    0.033715|
|        7470|  4.7948e+01|  4.7948e+01|  -10.111083|  1.4830e-06|    0.033714|
|        7480|  4.7948e+01|  4.7948e+01|  -10.114374|  1.4715e-06|    0.033713|
|        7490|  4.7948e+01|  4.7948e+01|  -10.117667|  1.4601e-06|    0.033711|
|        7500|  4.7948e+01|  4.7948e+01|  -10.120967|  1.4488e-06|    0.033710|
|        7510|  4.7948e+01|  4.7948e+01|  -10.124273|  1.4376e-06|    0.033709|
|        7520|  4.7948e+01|  4.7948e+01|  -10.127568|  1.4264e-06|    0.033707|
|        7530|  4.7948e+01|  4.7948e+01|  -10.130863|  1.4153e-06|    0.033706|
|        7540|  4.7948e+01|  4.7948e+01|  -10.134153|  1.4043e-06|    0.033705|
|        7550|  4.7948e+01|  4.7948e+01|  -10.137443|  1.3934e-06|    0.033703|
|        7560|  4.7948e+01|  4.7948e+01|  -10.140737|  1.3825e-06|    0.033702|
|        7570|  4.7948e+01|  4.7948e+01|  -10.144032|  1.3717e-06|    0.033701|
|        7580|  4.7948e+01|  4.7948e+01|  -10.147323|  1.3610e-06|    0.033700|
|        7590|  4.7948e+01|  4.7948e+01|  -10.150607|  1.3504e-06|    0.033698|
|        7600|  4.7948e+01|  4.7948e+01|  -10.153885|  1.3399e-06|    0.033697|
+-----------------------------------------------------------------------+
|        File Writing Summary       |              Filename             |
+-----------------------------------------------------------------------+
|SU2 binary restart                 |restart_flow_G5.dat                |
|Paraview                           |flow_G5.vtu                        |
|Paraview surface                   |surface_flow_G5.vtu                |
+-----------------------------------------------------------------------+
+-----------------------------------------------------------------------------+
|  Inner_Iter|     Min CFL|     Max CFL|      rms[P]|  Cauchy[CD]|          CD|
+-----------------------------------------------------------------------------+
|        7610|  4.7948e+01|  4.7948e+01|  -10.157170|  1.3294e-06|    0.033696|
|        7620|  4.7948e+01|  4.7948e+01|  -10.160457|  1.3191e-06|    0.033695|
|        7630|  4.7948e+01|  4.7948e+01|  -10.163750|  1.3088e-06|    0.033694|
|        7640|  4.7948e+01|  4.7948e+01|  -10.167033|  1.2986e-06|    0.033692|
|        7650|  4.7948e+01|  4.7948e+01|  -10.170313|  1.2885e-06|    0.033691|
|        7660|  4.7948e+01|  4.7948e+01|  -10.173592|  1.2785e-06|    0.033690|
|        7670|  4.7948e+01|  4.7948e+01|  -10.176873|  1.2686e-06|    0.033689|
|        7680|  4.7948e+01|  4.7948e+01|  -10.180172|  1.2588e-06|    0.033688|
|        7690|  4.7948e+01|  4.7948e+01|  -10.183455|  1.2490e-06|    0.033687|
|        7700|  4.7948e+01|  4.7948e+01|  -10.186759|  1.2393e-06|    0.033686|
|        7710|  4.7948e+01|  4.7948e+01|  -10.190064|  1.2297e-06|    0.033684|
|        7720|  4.7948e+01|  4.7948e+01|  -10.193366|  1.2202e-06|    0.033683|
|        7730|  4.7948e+01|  4.7948e+01|  -10.196668|  1.2108e-06|    0.033682|
|        7740|  4.7948e+01|  4.7948e+01|  -10.199972|  1.2014e-06|    0.033681|
|        7750|  4.7948e+01|  4.7948e+01|  -10.203276|  1.1921e-06|    0.033680|
|        7760|  4.7948e+01|  4.7948e+01|  -10.206580|  1.1829e-06|    0.033679|
|        7770|  4.7948e+01|  4.7948e+01|  -10.209887|  1.1737e-06|    0.033678|
|        7780|  4.7948e+01|  4.7948e+01|  -10.213196|  1.1647e-06|    0.033677|
|        7790|  4.7948e+01|  4.7948e+01|  -10.216505|  1.1557e-06|    0.033676|
|        7800|  4.7948e+01|  4.7948e+01|  -10.219814|  1.1468e-06|    0.033675|
+-----------------------------------------------------------------------+
|        File Writing Summary       |              Filename             |
+-----------------------------------------------------------------------+
|SU2 binary restart                 |restart_flow_G5.dat                |
|Paraview                           |flow_G5.vtu                        |
|Paraview surface                   |surface_flow_G5.vtu                |
+-----------------------------------------------------------------------+
+-----------------------------------------------------------------------------+
|  Inner_Iter|     Min CFL|     Max CFL|      rms[P]|  Cauchy[CD]|          CD|
+-----------------------------------------------------------------------------+
|        7810|  4.7948e+01|  4.7948e+01|  -10.223121|  1.1379e-06|    0.033674|
|        7820|  4.7948e+01|  4.7948e+01|  -10.226424|  1.1291e-06|    0.033673|
|        7830|  4.7948e+01|  4.7948e+01|  -10.229723|  1.1204e-06|    0.033672|
|        7840|  4.7948e+01|  4.7948e+01|  -10.233018|  1.1118e-06|    0.033671|
|        7850|  4.7948e+01|  4.7948e+01|  -10.236311|  1.1033e-06|    0.033670|
|        7860|  4.7948e+01|  4.7948e+01|  -10.239604|  1.0948e-06|    0.033669|
|        7870|  4.7948e+01|  4.7948e+01|  -10.242899|  1.0863e-06|    0.033668|
|        7880|  4.7948e+01|  4.7948e+01|  -10.246195|  1.0780e-06|    0.033667|
|        7890|  4.7948e+01|  4.7948e+01|  -10.249490|  1.0697e-06|    0.033666|
|        7900|  4.7948e+01|  4.7948e+01|  -10.252781|  1.0614e-06|    0.033665|
|        7910|  4.7948e+01|  4.7948e+01|  -10.256069|  1.0532e-06|    0.033664|
|        7920|  4.7948e+01|  4.7948e+01|  -10.259343|  1.0451e-06|    0.033663|
|        7930|  4.7948e+01|  4.7948e+01|  -10.262634|  1.0371e-06|    0.033662|
|        7940|  4.7948e+01|  4.7948e+01|  -10.265930|  1.0291e-06|    0.033661|
|        7950|  4.7948e+01|  4.7948e+01|  -10.269236|  1.0212e-06|    0.033660|
|        7960|  4.7948e+01|  4.7948e+01|  -10.272541|  1.0133e-06|    0.033659|
|        7970|  4.7948e+01|  4.7948e+01|  -10.275848|  1.0055e-06|    0.033658|
|        7978|  4.7948e+01|  4.7948e+01|  -10.278494|  9.9929e-07|    0.033657|

----------------------------- Solver Exit -------------------------------
All convergence criteria satisfied.
+-----------------------------------------------------------------------+
|      Convergence Field     |     Value    |   Criterion  |  Converged |
+-----------------------------------------------------------------------+
|                      rms[P]|      -10.2785|          < -9|         Yes|
|                  Cauchy[CD]|    9.9929e-07|       < 1e-06|         Yes|
+-----------------------------------------------------------------------+
-------------------------------------------------------------------------
+-----------------------------------------------------------------------+
|        File Writing Summary       |              Filename             |
+-----------------------------------------------------------------------+
|SU2 binary restart                 |restart_flow_G5.dat                |
|Paraview                           |flow_G5.vtu                        |
|Paraview surface                   |surface_flow_G5.vtu                |
+-----------------------------------------------------------------------+

------------------------- Solver Postprocessing -------------------------
Deleted CNumerics container.
Deleted CIntegration container.
Deleted CSolver container.
Deleted CIteration container.
Deleted CInterface container.
Deleted CGeometry container.
Deleted CFreeFormDefBox class.
Deleted CSurfaceMovement class.
Deleted CVolumetricMovement class.
Deleted CConfig container.
Deleted nInst container.
Deleted COutput class.
-------------------------------------------------------------------------

------------------------- Exit Success (SU2_CFD) ------------------------

