
-------------------------------------------------------------------------
|    ___ _   _ ___                                                      |
|   / __| | | |_  )   Release 7.4.0 "Blackbird"                         |
|   \__ \ |_| |/ /                                                      |
|   |___/\___//___|   Suite (Computational Fluid Dynamics Code)         |
|                                                                       |
-------------------------------------------------------------------------
| SU2 Project Website: https://su2code.github.io                        |
|                                                                       |
| The SU2 Project is maintained by the SU2 Foundation                   |
| (http://su2foundation.org)                                            |
-------------------------------------------------------------------------
| Copyright 2012-2022, SU2 Contributors                                 |
|                                                                       |
| SU2 is free software; you can redistribute it and/or                  |
| modify it under the terms of the GNU Lesser General Public            |
| License as published by the Free Software Foundation; either          |
| version 2.1 of the License, or (at your option) any later version.    |
|                                                                       |
| SU2 is distributed in the hope that it will be useful,                |
| but WITHOUT ANY WARRANTY; without even the implied warranty of        |
| MERCHANTABILITY or FITNESS FOR A PARTICULAR PURPOSE. See the GNU      |
| Lesser General Public License for more details.                       |
|                                                                       |
| You should have received a copy of the GNU Lesser General Public      |
| License along with SU2. If not, see <http://www.gnu.org/licenses/>.   |
-------------------------------------------------------------------------

Parsing config file for zone 0

----------------- Physical Case Definition ( Zone 0 ) -------------------
Incompressible RANS equations.
Turbulence model: Menter's k-omega SST-2003m with no production modification.
Hybrid RANS/LES: No Hybrid RANS/LES
Reading and writing binary SU2 native restart files.
Read flow solution from: ../../../O1/caseG4/cfdG4/restart_flow_G4.dat.
Non-Dimensional simulation using intialization values.
The reference area is 1 m^2.
The semi-span will be computed using the max y(3D) value.
The reference length is 1.00898 m.
Reference origin for moment evaluation is (-0.756, 0, 0).
Surface(s) where the force coefficients are evaluated: AIRFOIL.

Surface(s) plotted in the output file: AIRFOIL.
Input mesh file name: ../meshG4/meshG4.su2

--------------- Space Numerical Integration ( Zone 0 ) ------------------
Flux difference splitting (FDS) upwind scheme for the flow inviscid terms.
Second order integration in space, with slope limiter.
Venkatakrishnan slope-limiting method, with constant: 0.0672.
The reference element size is: 1. 
Average of gradients with correction (viscous flow terms).
Average of gradients with correction (viscous turbulence terms).
Gradient for upwind reconstruction: unweighted Least-Squares.
Gradient for viscous and source terms: Green-Gauss.

--------------- Time Numerical Integration  ( Zone 0 ) ------------------
Local time stepping (steady state simulation).
Euler implicit method for the flow equations.
FGMRES is used for solving the linear system.
Using a ILU(0) preconditioning.
Convergence criteria of the linear solver: 1e-06.
Max number of linear iterations: 10.
CFL adaptation. Factor down: 0.1, factor up: 1.2,
                lower limit: 1, upper limit: 1000,
                acceptable linear residual: 0.001.
Courant-Friedrichs-Lewy number:        2
Euler implicit time integration for the turbulence model.

------------------ Convergence Criteria  ( Zone 0 ) ---------------------
Maximum number of solver subiterations: 20000.
Begin convergence monitoring at iteration 10.
Residual minimum value: 1e-9.
Cauchy series min. value: 1e-06.
Number of Cauchy elements: 250.
Begin windowed time average at iteration 0.

-------------------- Output Information ( Zone 0 ) ----------------------
File writing frequency: 
+------------------------------------+
|                     File| Frequency|
+------------------------------------+
|                  RESTART|       200|
|                 PARAVIEW|       200|
|         SURFACE_PARAVIEW|       200|
+------------------------------------+
Writing the convergence history file every 1 inner iterations.
Writing the screen convergence history every 10 inner iterations.
The tabular file format is CSV (.csv).
Convergence history file name: history_G4.
Forces breakdown file name: forces_breakdown.dat.
Surface file name: surface_flow_G4.
Volume file name: flow_G4.
Restart file name: restart_flow_G4.dat.

------------- Config File Boundary Information ( Zone 0 ) ---------------
+-----------------------------------------------------------------------+
|                        Marker Type|                        Marker Name|
+-----------------------------------------------------------------------+
|                          Far-field|                           FARFIELD|
+-----------------------------------------------------------------------+
|                     Heat flux wall|                            AIRFOIL|
+-----------------------------------------------------------------------+

-------------------- Output Preprocessing ( Zone 0 ) --------------------

WARNING: SURFACE_PRESSURE_DROP can only be computed for at least 2 surfaces (outlet, inlet, ...)

Screen output fields: INNER_ITER, MIN_CFL, MAX_CFL, RMS_PRESSURE, CAUCHY_DRAG, DRAG
History output group(s): INNER_ITER, MIN_CFL, MAX_CFL, RMS_RES, LIFT, DRAG, MOMENT_Z, CAUCHY
Convergence field(s): RMS_PRESSURE, DRAG
Warning: No (valid) fields chosen for time convergence monitoring. Time convergence monitoring inactive.
Volume output fields: COORDINATES, SOLUTION, PRIMITIVE, RESIDUAL, MESH_QUALITY

------------------- Geometry Preprocessing ( Zone 0 ) -------------------
Two dimensional problem.
251057 grid points before partitioning.
249975 volume elements before partitioning.
2 surface markers.
603 boundary elements in index 0 (Marker = AIRFOIL).
1561 boundary elements in index 1 (Marker = FARFIELD).
Executing the partitioning functions.
Building the graph adjacency structure.
Calling ParMETIS... graph partitioning complete (3427 edge cuts).
Distributing ParMETIS coloring.
Rebalancing vertices.
Rebalancing volume element connectivity.
Rebalancing markers and surface elements.
257931 vertices including ghost points. 
253400 interior elements including halo cells. 
253400 quadrilaterals.
Establishing MPI communication patterns.
Setting point connectivity.
Renumbering points (Reverse Cuthill McKee Ordering).
Recomputing point connectivity.
Setting element connectivity.
Checking the numerical grid orientation.
All volume elements are correctly orientend.
There has been a re-orientation of 1090 LINE surface elements.
Identifying edges and vertices.
Setting the control volume structure.
Area of the computational grid: 103514.
Searching for the closest normal neighbors to the surfaces.
Storing a mapping from global to local point index.
Compute the surface curvature.
Max K: 5206.4. Mean K: 4.08642. Standard deviation K: 114.591.
Checking for periodicity.
Computing mesh quality statistics for the dual control volumes.
+--------------------------------------------------------------+
|           Mesh Quality Metric|        Minimum|        Maximum|
+--------------------------------------------------------------+
|    Orthogonality Angle (deg.)|        80.1093|             90|
|     CV Face Area Aspect Ratio|        1.00002|         364665|
|           CV Sub-Volume Ratio|              1|        28.3484|
+--------------------------------------------------------------+
Finding max control volume width.
Communicating number of neighbors.
Wetted area = 2.05965 m.
Area projection in the x-plane = 0.121114 m, y-plane = 1.00878 m.
Max. coordinate in the x-direction = 1.00898 m, y-direction = 0.0759843 m.
Min. coordinate in the x-direction = 6.29983e-06 m, y-direction = -0.0451339 m.
Computing wall distances.

-------------------- Solver Preprocessing ( Zone 0 ) --------------------
 Warning: There is no restart file (flow.meta).
 Computation will continue without updating metadata parameters.
Incompressible flow: rho_ref, vel_ref, and temp_ref
are based on the initial values, p_ref = rho_ref*vel_ref^2.
Force coefficients computed using initial values.
The reference area for force coeffs. is 1 m^2.
The reference length for force coeffs. is 1.00898 m.
The pressure is decomposed into thermodynamic and dynamic components.
The initial value of the dynamic pressure is 0.
Mach number: 0.0276747, computed using the Bulk modulus.
For external flows, the initial state is imposed at the far-field.
Angle of attack (deg): 14, computed using the initial velocity.
Side slip angle (deg): 0, computed using the initial velocity.
Reynolds number per meter: 594999, computed using initial values.
Reynolds number is a byproduct of inputs only (not used internally).
SI units only. The grid should be dimensional (meters).
No energy equation.

-- Models:
+------------------------------------------------------------------------------+
|          Viscosity Model|        Conductivity Model|              Fluid Model|
+------------------------------------------------------------------------------+
|       CONSTANT_VISCOSITY|          CONSTANT_PRANDTL|         CONSTANT_DENSITY|
+------------------------------------------------------------------------------+
-- Fluid properties:
+------------------------------------------------------------------------------+
|                  Name|    Dim. value|    Ref. value|      Unit|Non-dim. value|
+------------------------------------------------------------------------------+
|             Viscosity|      1.92e-05|        11.424|   N.s/m^2|   1.68067e-06|
+------------------------------------------------------------------------------+
|        Prandtl (Lam.)|             -|             -|         -|          0.72|
|       Prandtl (Turb.)|             -|             -|         -|           0.9|
+------------------------------------------------------------------------------+
|          Bulk Modulus|        142000|             1|        Pa|        142000|
+------------------------------------------------------------------------------+
-- Initial and free-stream conditions:
+------------------------------------------------------------------------------+
|                  Name|    Dim. value|    Ref. value|      Unit|Non-dim. value|
+------------------------------------------------------------------------------+
|      Dynamic Pressure|             0|       108.756|        Pa|             0|
|        Total Pressure|       54.3781|       108.756|        Pa|           0.5|
|               Density|           1.2|           1.2|    kg/m^3|             1|
|            Velocity-X|        9.2372|       9.51999|       m/s|      0.970296|
|            Velocity-Y|        2.3031|       9.51999|       m/s|      0.241923|
|    Velocity Magnitude|       9.51999|       9.51999|       m/s|             1|
+------------------------------------------------------------------------------+
|             Viscosity|      1.92e-05|        11.424|   N.s/m^2|   1.68067e-06|
|          Conductivity|             -|       3.59312|   W/m^2.K|             -|
|     Turb. Kin. Energy|       1.35945|       90.6301|   m^2/s^2|         0.015|
|     Spec. Dissipation|       8496.58|       9.51999|       1/s|       892.499|
+------------------------------------------------------------------------------+
|           Mach Number|             -|             -|         -|     0.0276747|
|       Reynolds Number|             -|             -|         -|        594999|
+------------------------------------------------------------------------------+
Initialize Jacobian structure (Navier-Stokes). MG level: 0.
Initialize Jacobian structure (SST model).

------------------- Numerics Preprocessing ( Zone 0 ) -------------------

----------------- Integration Preprocessing ( Zone 0 ) ------------------

------------------- Iteration Preprocessing ( Zone 0 ) ------------------
Euler/Navier-Stokes/RANS fluid iteration.

------------------------------ Begin Solver -----------------------------

Simulation Run using the Single-zone Driver
+-----------------------------------------------------------------------------+
|  Inner_Iter|     Min CFL|     Max CFL|      rms[P]|  Cauchy[CD]|          CD|
+-----------------------------------------------------------------------------+
|           0|  2.4000e+00|  2.4000e+00|   -6.258317|  1.0000e+00|    0.111668|
|          10|  1.4860e+01|  1.4860e+01|   -6.245009|  1.0615e-04|    0.108750|
|          20|  7.6675e+00|  7.6675e+00|   -6.507746|  1.4601e-03|    0.074638|
|          30|  4.7475e+01|  4.7475e+01|   -6.574682|  2.1415e-03|    0.057605|
|          40|  2.4496e+01|  2.4496e+01|   -6.547529|  2.2126e-03|    0.056234|
|          50|  1.2639e+01|  1.2639e+01|   -6.548629|  2.3563e-03|    0.059828|
|          60|  6.5217e+00|  6.5217e+00|   -6.503138|  2.4447e-03|    0.062037|
|          70|  4.0381e+01|  4.0381e+01|   -6.555615|  2.4561e-03|    0.062304|
|          80|  2.0836e+01|  2.0836e+01|   -6.649729|  2.4908e-03|    0.061436|
|          90|  1.0751e+01|  1.0751e+01|   -6.609000|  2.5929e-03|    0.058885|
|         100|  5.5471e+01|  5.5471e+01|   -6.654432|  2.6338e-03|    0.058402|
|         110|  2.8622e+01|  2.8622e+01|   -6.741271|  2.6941e-03|    0.059909|
|         120|  1.4768e+01|  1.4768e+01|   -6.751970|  2.7471e-03|    0.061234|
|         130|  7.6201e+00|  7.6201e+00|   -6.765946|  2.7906e-03|    0.060279|
|         140|  4.7182e+01|  4.7182e+01|   -6.772107|  2.8584e-03|    0.058586|
|         150|  2.4345e+01|  2.4345e+01|   -6.799587|  2.9307e-03|    0.056777|
|         160|  1.2561e+01|  1.2561e+01|   -6.818204|  2.9941e-03|    0.055192|
|         170|  4.5010e+00|  4.5010e+00|   -6.809252|  3.0325e-03|    0.054233|
|         180|  2.7869e+01|  2.7869e+01|   -6.831980|  3.0354e-03|    0.054267|
|         190|  4.0131e+01|  4.0131e+01|   -6.845117|  3.1009e-03|    0.055906|
|         200|  2.0707e+01|  2.0707e+01|   -6.833496|  3.1337e-03|    0.056725|
+-----------------------------------------------------------------------+
|        File Writing Summary       |              Filename             |
+-----------------------------------------------------------------------+
|SU2 binary restart                 |restart_flow_G4.dat                |
|Paraview                           |flow_G4.vtu                        |
|Paraview surface                   |surface_flow_G4.vtu                |
+-----------------------------------------------------------------------+
+-----------------------------------------------------------------------------+
|  Inner_Iter|     Min CFL|     Max CFL|      rms[P]|  Cauchy[CD]|          CD|
+-----------------------------------------------------------------------------+
|         210|  1.0684e+01|  1.0684e+01|   -6.834521|  3.1492e-03|    0.057114|
|         220|  5.5128e+00|  5.5128e+00|   -6.832556|  3.1759e-03|    0.056448|
|         230|  3.4134e+01|  3.4134e+01|   -6.842494|  3.2145e-03|    0.055483|
|         240|  4.0961e+01|  4.0961e+01|   -6.939680|  3.3240e-03|    0.052745|
|         250|  1.2231e+01|  1.2231e+01|   -6.922511|  3.3387e-03|    0.052461|
|         260|  6.3108e+00|  6.3108e+00|   -6.933460|  3.2611e-03|    0.053173|
|         270|  3.9075e+01|  3.9075e+01|   -6.938177|  1.9263e-03|    0.053653|
|         280|  2.0162e+01|  2.0162e+01|   -6.939859|  1.2524e-03|    0.053838|
|         290|  1.0403e+01|  1.0403e+01|   -6.934091|  1.1948e-03|    0.053498|
|         300|  4.4731e+01|  4.4731e+01|   -6.936146|  1.0840e-03|    0.052676|
|         310|  1.3357e+01|  1.3357e+01|   -6.970359|  1.0216e-03|    0.052026|
|         320|  5.7431e+00|  5.7431e+00|   -6.948829|  1.0240e-03|    0.051681|
|         330|  3.5560e+01|  3.5560e+01|   -6.937623|  9.9698e-04|    0.051489|
|         340|  1.8348e+01|  1.8348e+01|   -6.941586|  9.1028e-04|    0.051105|
|         350|  9.4672e+00|  9.4672e+00|   -6.972012|  8.9706e-04|    0.050412|
|         360|  4.8849e+01|  4.8849e+01|   -7.018680|  8.6254e-04|    0.049768|
|         370|  1.0129e+01|  1.0129e+01|   -7.031844|  8.2955e-04|    0.049267|
|         380|  5.2265e+01|  5.2265e+01|   -7.023807|  7.8869e-04|    0.049264|
|         390|  1.0838e+01|  1.0838e+01|   -7.023726|  7.2585e-04|    0.049385|
|         400|  5.5920e+00|  5.5920e+00|   -7.030992|  6.5870e-04|    0.049259|
+-----------------------------------------------------------------------+
|        File Writing Summary       |              Filename             |
+-----------------------------------------------------------------------+
|SU2 binary restart                 |restart_flow_G4.dat                |
|Paraview                           |flow_G4.vtu                        |
|Paraview surface                   |surface_flow_G4.vtu                |
+-----------------------------------------------------------------------+
+-----------------------------------------------------------------------------+
|  Inner_Iter|     Min CFL|     Max CFL|      rms[P]|  Cauchy[CD]|          CD|
+-----------------------------------------------------------------------------+
|         410|  3.4624e+01|  3.4624e+01|   -7.054279|  6.0303e-04|    0.049066|
|         420|  1.7865e+01|  1.7865e+01|   -7.090936|  5.7994e-04|    0.048684|
|         430|  9.2181e+00|  9.2181e+00|   -7.107369|  6.0053e-04|    0.048097|
|         440|  5.7076e+01|  5.7076e+01|   -7.086237|  5.5449e-04|    0.047609|
|         450|  2.9450e+01|  2.9450e+01|   -7.056500|  5.3170e-04|    0.047360|
|         460|  1.5196e+01|  1.5196e+01|   -7.063764|  5.2344e-04|    0.047178|
|         470|  5.4448e+01|  5.4448e+01|   -7.146062|  4.9840e-04|    0.047138|
|         480|  6.5338e+00|  6.5338e+00|   -7.173842|  4.6601e-04|    0.046983|
|         490|  4.0456e+01|  4.0456e+01|   -7.153841|  3.6112e-04|    0.046867|
|         500|  2.0874e+01|  2.0874e+01|   -7.147031|  3.5347e-04|    0.046689|
|         510|  5.1942e+01|  5.1942e+01|   -7.196273|  3.3794e-04|    0.046365|
|         520|  5.1942e+01|  5.1942e+01|   -7.251972|  3.3436e-04|    0.045975|
|         530|  2.2334e+01|  2.2334e+01|   -7.236063|  3.3196e-04|    0.045850|
|         540|  1.1524e+01|  1.1524e+01|   -7.219288|  3.2277e-04|    0.045740|
|         550|  4.9550e+01|  4.9550e+01|   -7.242009|  2.9116e-04|    0.045718|
|         560|  4.9550e+01|  4.9550e+01|   -7.360744|  2.6853e-04|    0.045802|
|         570|  4.9550e+01|  4.9550e+01|   -7.338328|  2.5935e-04|    0.045691|
|         580|  4.9550e+01|  4.9550e+01|   -7.334881|  2.6396e-04|    0.045384|
|         590|  2.1306e+01|  2.1306e+01|   -7.377569|  2.5251e-04|    0.045286|
|         600|  1.0993e+01|  1.0993e+01|   -7.379540|  2.2856e-04|    0.045191|
+-----------------------------------------------------------------------+
|        File Writing Summary       |              Filename             |
+-----------------------------------------------------------------------+
|SU2 binary restart                 |restart_flow_G4.dat                |
|Paraview                           |flow_G4.vtu                        |
|Paraview surface                   |surface_flow_G4.vtu                |
+-----------------------------------------------------------------------+
+-----------------------------------------------------------------------------+
|  Inner_Iter|     Min CFL|     Max CFL|      rms[P]|  Cauchy[CD]|          CD|
+-----------------------------------------------------------------------------+
|         610|  4.7269e+01|  4.7269e+01|   -7.342123|  2.0554e-04|    0.045123|
|         620|  4.7269e+01|  4.7269e+01|   -7.334041|  1.8878e-04|    0.045042|
|         630|  8.1681e+00|  8.1681e+00|   -7.424367|  1.8850e-04|    0.044982|
|         640|  5.0575e+01|  5.0575e+01|   -7.525829|  1.8487e-04|    0.044951|
|         650|  2.6095e+01|  2.6095e+01|   -7.518189|  1.8088e-04|    0.044920|
|         660|  1.3465e+01|  1.3465e+01|   -7.471176|  1.7566e-04|    0.044857|
|         670|  6.9475e+00|  6.9475e+00|   -7.455035|  1.6491e-04|    0.044744|
|         680|  2.0736e+00|  2.0736e+00|   -7.491141|  1.4192e-04|    0.044732|
|         690|  1.2839e+01|  1.2839e+01|   -7.508999|  1.2345e-04|    0.044706|
|         700|  6.6247e+00|  6.6247e+00|   -7.540778|  1.1930e-04|    0.044561|
|         710|  4.1019e+01|  4.1019e+01|   -7.577729|  1.1578e-04|    0.044467|
|         720|  1.0000e+00|  1.0000e+00|   -7.545050|  1.1848e-04|    0.044359|
|         730|  1.2000e+00|  1.2000e+00|   -7.530357|  1.1247e-04|    0.044354|
|         740|  7.4301e+00|  7.4301e+00|   -7.540264|  1.0843e-04|    0.044339|
|         750|  4.6005e+01|  4.6005e+01|   -7.492520|  1.0450e-04|    0.044260|
|         760|  2.3738e+01|  2.3738e+01|   -7.485554|  9.4309e-05|    0.044191|
|         770|  1.2248e+01|  1.2248e+01|   -7.514987|  8.1238e-05|    0.044127|
|         780|  5.2665e+01|  5.2665e+01|   -7.564067|  7.7856e-05|    0.044086|
|         790|  7.5837e+00|  7.5837e+00|   -7.558704|  7.4283e-05|    0.044084|
|         800|  4.6956e+01|  4.6956e+01|   -7.583765|  7.3767e-05|    0.044103|
+-----------------------------------------------------------------------+
|        File Writing Summary       |              Filename             |
+-----------------------------------------------------------------------+
|SU2 binary restart                 |restart_flow_G4.dat                |
|Paraview                           |flow_G4.vtu                        |
|Paraview surface                   |surface_flow_G4.vtu                |
+-----------------------------------------------------------------------+
+-----------------------------------------------------------------------------+
|  Inner_Iter|     Min CFL|     Max CFL|      rms[P]|  Cauchy[CD]|          CD|
+-----------------------------------------------------------------------------+
|         810|  1.0000e+00|  1.0000e+00|   -7.602655|  7.0934e-05|    0.044116|
|         820|  4.2998e+00|  4.2998e+00|   -7.614108|  6.6362e-05|    0.044118|
|         830|  2.6623e+01|  2.6623e+01|   -7.622022|  5.4562e-05|    0.044131|
|         840|  5.5206e+01|  5.5206e+01|   -7.631502|  5.2391e-05|    0.044174|
|         850|  1.9781e+01|  1.9781e+01|   -7.659834|  4.9403e-05|    0.044194|
|         860|  1.0207e+01|  1.0207e+01|   -7.577734|  4.7837e-05|    0.044223|
|         870|  5.2665e+00|  5.2665e+00|   -7.611953|  4.6280e-05|    0.044265|
|         880|  3.2609e+01|  3.2609e+01|   -7.648745|  4.5163e-05|    0.044297|
|         890|  1.7280e+00|  1.7280e+00|   -7.685602|  4.6214e-05|    0.044355|
|         900|  1.0699e+01|  1.0699e+01|   -7.698332|  4.5550e-05|    0.044369|
|         910|  5.5206e+00|  5.5206e+00|   -7.692026|  4.7049e-05|    0.044469|
|         920|  3.4182e+01|  3.4182e+01|   -7.700875|  4.4717e-05|    0.044524|
|         930|  1.0207e+01|  1.0207e+01|   -7.699970|  4.8624e-05|    0.044633|
|         940|  5.2665e+00|  5.2665e+00|   -7.722135|  5.0787e-05|    0.044714|
|         950|  2.9860e+00|  2.9860e+00|   -7.741819|  4.5224e-05|    0.044720|
|         960|  2.0736e+00|  2.0736e+00|   -7.755504|  4.1727e-05|    0.044727|
|         970|  1.2839e+01|  1.2839e+01|   -7.770609|  3.7903e-05|    0.044739|
|         980|  4.6005e+01|  4.6005e+01|   -7.774391|  3.9329e-05|    0.044779|
|         990|  4.6005e+01|  4.6005e+01|   -7.726591|  4.0090e-05|    0.044751|
|        1000|  7.9497e+00|  7.9497e+00|   -7.688131|  4.0359e-05|    0.044665|
+-----------------------------------------------------------------------+
|        File Writing Summary       |              Filename             |
+-----------------------------------------------------------------------+
|SU2 binary restart                 |restart_flow_G4.dat                |
|Paraview                           |flow_G4.vtu                        |
|Paraview surface                   |surface_flow_G4.vtu                |
+-----------------------------------------------------------------------+
+-----------------------------------------------------------------------------+
|  Inner_Iter|     Min CFL|     Max CFL|      rms[P]|  Cauchy[CD]|          CD|
+-----------------------------------------------------------------------------+
|        1010|  4.9222e+01|  4.9222e+01|   -7.728273|  3.9845e-05|    0.044608|
|        1020|  2.5398e+01|  2.5398e+01|   -7.744849|  3.9090e-05|    0.044563|
|        1030|  1.3105e+01|  1.3105e+01|   -7.750157|  4.0161e-05|    0.044496|
|        1040|  4.6956e+01|  4.6956e+01|   -7.723070|  4.3052e-05|    0.044403|
|        1050|  4.6956e+01|  4.6956e+01|   -7.734600|  4.8381e-05|    0.044251|
|        1060|  8.1140e+00|  8.1140e+00|   -7.702644|  5.3047e-05|    0.044121|
|        1070|  5.0240e+01|  5.0240e+01|   -7.745494|  5.6361e-05|    0.044037|
|        1080|  2.5923e+01|  2.5923e+01|   -7.746662|  5.8449e-05|    0.043972|
|        1090|  4.4794e+01|  4.4794e+01|   -7.696305|  6.2923e-05|    0.043817|
|        1100|  4.4794e+01|  4.4794e+01|   -7.693207|  6.7249e-05|    0.043689|
|        1110|  4.4794e+01|  4.4794e+01|   -7.687372|  6.8476e-05|    0.043629|
|        1120|  9.2886e+00|  9.2886e+00|   -7.641337|  6.7241e-05|    0.043636|
|        1130|  4.7927e+00|  4.7927e+00|   -7.709255|  6.7033e-05|    0.043662|
|        1140|  2.9675e+01|  2.9675e+01|   -7.744831|  6.5455e-05|    0.043681|
|        1150|  1.5312e+01|  1.5312e+01|   -7.750479|  6.6375e-05|    0.043718|
|        1160|  7.9005e+00|  7.9005e+00|   -7.642442|  6.4479e-05|    0.043771|
|        1170|  4.8918e+01|  4.8918e+01|   -7.709758|  6.3985e-05|    0.043813|
|        1180|  4.8918e+01|  4.8918e+01|   -7.687854|  6.3394e-05|    0.043908|
|        1190|  4.8918e+01|  4.8918e+01|   -7.705214|  6.3013e-05|    0.043979|
|        1200|  4.8918e+01|  4.8918e+01|   -7.727881|  6.4237e-05|    0.044015|
+-----------------------------------------------------------------------+
|        File Writing Summary       |              Filename             |
+-----------------------------------------------------------------------+
|SU2 binary restart                 |restart_flow_G4.dat                |
|Paraview                           |flow_G4.vtu                        |
|Paraview surface                   |surface_flow_G4.vtu                |
+-----------------------------------------------------------------------+
+-----------------------------------------------------------------------------+
|  Inner_Iter|     Min CFL|     Max CFL|      rms[P]|  Cauchy[CD]|          CD|
+-----------------------------------------------------------------------------+
|        1210|  1.0144e+01|  1.0144e+01|   -7.716672|  6.4220e-05|    0.044016|
|        1220|  5.2339e+01|  5.2339e+01|   -7.764235|  6.4343e-05|    0.044001|
|        1230|  5.2339e+01|  5.2339e+01|   -7.751811|  6.5650e-05|    0.043928|
|        1240|  5.2339e+01|  5.2339e+01|   -7.762673|  6.9450e-05|    0.043799|
|        1250|  1.8754e+01|  1.8754e+01|   -7.798015|  6.8738e-05|    0.043730|
|        1260|  9.6766e+00|  9.6766e+00|   -7.762633|  7.0006e-05|    0.043642|
|        1270|  4.9929e+01|  4.9929e+01|   -7.809578|  7.1701e-05|    0.043555|
|        1280|  4.9929e+01|  4.9929e+01|   -7.818663|  7.5817e-05|    0.043385|
|        1290|  4.9929e+01|  4.9929e+01|   -7.836699|  7.8253e-05|    0.043231|
|        1300|  4.9929e+01|  4.9929e+01|   -7.850356|  7.6748e-05|    0.043117|
|        1310|  4.9929e+01|  4.9929e+01|   -7.861185|  7.4470e-05|    0.043044|
|        1320|  4.9929e+01|  4.9929e+01|   -7.871185|  7.2412e-05|    0.043011|
|        1330|  5.9915e+01|  5.9915e+01|   -7.882710|  7.0220e-05|    0.043016|
|        1340|  3.0915e+01|  3.0915e+01|   -7.919165|  6.4364e-05|    0.043025|
|        1350|  1.5951e+01|  1.5951e+01|   -7.922788|  5.9933e-05|    0.043042|
|        1360|  8.2306e+00|  8.2306e+00|   -7.850538|  5.8575e-05|    0.043068|
|        1370|  5.0962e+01|  5.0962e+01|   -7.919963|  5.8967e-05|    0.043089|
|        1380|  5.0962e+01|  5.0962e+01|   -7.895229|  5.9852e-05|    0.043138|
|        1390|  5.0962e+01|  5.0962e+01|   -7.882071|  6.0109e-05|    0.043162|
|        1400|  5.0962e+01|  5.0962e+01|   -7.873991|  5.9027e-05|    0.043154|
+-----------------------------------------------------------------------+
|        File Writing Summary       |              Filename             |
+-----------------------------------------------------------------------+
|SU2 binary restart                 |restart_flow_G4.dat                |
|Paraview                           |flow_G4.vtu                        |
|Paraview surface                   |surface_flow_G4.vtu                |
+-----------------------------------------------------------------------+
+-----------------------------------------------------------------------------+
|  Inner_Iter|     Min CFL|     Max CFL|      rms[P]|  Cauchy[CD]|          CD|
+-----------------------------------------------------------------------------+
|        1410|  5.0962e+01|  5.0962e+01|   -7.874440|  5.8304e-05|    0.043119|
|        1420|  5.0962e+01|  5.0962e+01|   -7.878674|  5.8890e-05|    0.043062|
|        1430|  5.0962e+01|  5.0962e+01|   -7.882692|  5.8282e-05|    0.042983|
|        1440|  5.0962e+01|  5.0962e+01|   -7.887720|  5.9509e-05|    0.042881|
|        1450|  5.0962e+01|  5.0962e+01|   -7.897585|  6.2740e-05|    0.042764|
|        1460|  1.2681e+01|  1.2681e+01|   -7.954514|  6.5275e-05|    0.042694|
|        1470|  6.5431e+00|  6.5431e+00|   -7.922506|  6.7177e-05|    0.042631|
|        1480|  4.0513e+01|  4.0513e+01|   -7.954268|  6.5759e-05|    0.042593|
|        1490|  4.8615e+01|  4.8615e+01|   -7.948598|  6.4155e-05|    0.042505|
|        1500|  1.7420e+01|  1.7420e+01|   -7.984748|  6.3105e-05|    0.042463|
|        1510|  8.9882e+00|  8.9882e+00|   -7.939882|  6.0978e-05|    0.042428|
|        1520|  5.5653e+01|  5.5653e+01|   -7.979688|  5.8635e-05|    0.042399|
|        1530|  2.8716e+01|  2.8716e+01|   -7.995516|  5.2551e-05|    0.042381|
|        1540|  1.0289e+01|  1.0289e+01|   -7.945043|  4.7510e-05|    0.042353|
|        1550|  5.3091e+00|  5.3091e+00|   -7.975001|  4.3665e-05|    0.042335|
|        1560|  1.0000e+00|  1.0000e+00|   -7.968408|  4.0791e-05|    0.042334|
|        1570|  1.2000e+00|  1.2000e+00|   -7.971410|  3.9486e-05|    0.042333|
|        1580|  7.4301e+00|  7.4301e+00|   -7.991981|  3.9172e-05|    0.042331|
|        1590|  4.6005e+01|  4.6005e+01|   -7.984377|  3.9217e-05|    0.042321|
|        1600|  2.3738e+01|  2.3738e+01|   -7.987962|  3.8771e-05|    0.042315|
+-----------------------------------------------------------------------+
|        File Writing Summary       |              Filename             |
+-----------------------------------------------------------------------+
|SU2 binary restart                 |restart_flow_G4.dat                |
|Paraview                           |flow_G4.vtu                        |
|Paraview surface                   |surface_flow_G4.vtu                |
+-----------------------------------------------------------------------+
+-----------------------------------------------------------------------------+
|  Inner_Iter|     Min CFL|     Max CFL|      rms[P]|  Cauchy[CD]|          CD|
+-----------------------------------------------------------------------------+
|        1610|  1.2248e+01|  1.2248e+01|   -7.974170|  3.7972e-05|    0.042309|
|        1620|  5.2665e+01|  5.2665e+01|   -7.957636|  3.7298e-05|    0.042305|
|        1630|  1.5726e+01|  1.5726e+01|   -7.970937|  3.5503e-05|    0.042301|
|        1640|  5.6348e+01|  5.6348e+01|   -7.945664|  3.4778e-05|    0.042295|
|        1650|  5.6348e+01|  5.6348e+01|   -7.939387|  3.5328e-05|    0.042271|
|        1660|  5.6348e+01|  5.6348e+01|   -7.939829|  3.5645e-05|    0.042228|
|        1670|  5.6348e+01|  5.6348e+01|   -7.944484|  3.5913e-05|    0.042164|
|        1680|  8.1140e+00|  8.1140e+00|   -7.919820|  3.5472e-05|    0.042096|
|        1690|  5.0240e+01|  5.0240e+01|   -7.982091|  3.2873e-05|    0.042059|
|        1700|  2.5923e+01|  2.5923e+01|   -7.992852|  2.9664e-05|    0.042022|
|        1710|  1.3376e+01|  1.3376e+01|   -7.995525|  2.8619e-05|    0.041978|
|        1720|  6.9015e+00|  6.9015e+00|   -7.998578|  2.8374e-05|    0.041922|
|        1730|  4.2732e+01|  4.2732e+01|   -8.018795|  2.8377e-05|    0.041884|
|        1740|  2.2049e+01|  2.2049e+01|   -8.025886|  2.6317e-05|    0.041847|
|        1750|  1.1377e+01|  1.1377e+01|   -8.021111|  2.6714e-05|    0.041795|
|        1760|  4.8918e+01|  4.8918e+01|   -8.042376|  2.7706e-05|    0.041735|
|        1770|  4.8918e+01|  4.8918e+01|   -8.060127|  3.0415e-05|    0.041639|
|        1780|  4.8918e+01|  4.8918e+01|   -8.083722|  3.3148e-05|    0.041552|
|        1790|  4.8918e+01|  4.8918e+01|   -8.104350|  3.4921e-05|    0.041480|
|        1800|  4.8918e+01|  4.8918e+01|   -8.122025|  3.6479e-05|    0.041423|
+-----------------------------------------------------------------------+
|        File Writing Summary       |              Filename             |
+-----------------------------------------------------------------------+
|SU2 binary restart                 |restart_flow_G4.dat                |
|Paraview                           |flow_G4.vtu                        |
|Paraview surface                   |surface_flow_G4.vtu                |
+-----------------------------------------------------------------------+
+-----------------------------------------------------------------------------+
|  Inner_Iter|     Min CFL|     Max CFL|      rms[P]|  Cauchy[CD]|          CD|
+-----------------------------------------------------------------------------+
|        1810|  4.8918e+01|  4.8918e+01|   -8.133537|  3.8245e-05|    0.041378|
|        1820|  4.8918e+01|  4.8918e+01|   -8.140146|  3.9768e-05|    0.041339|
|        1830|  1.4607e+01|  1.4607e+01|   -8.179248|  4.0603e-05|    0.041316|
|        1840|  7.5368e+00|  7.5368e+00|   -8.092589|  4.1006e-05|    0.041296|
|        1850|  4.6666e+01|  4.6666e+01|   -8.169138|  4.1407e-05|    0.041280|
|        1860|  2.4079e+01|  2.4079e+01|   -8.181704|  4.1814e-05|    0.041264|
|        1870|  1.2424e+01|  1.2424e+01|   -8.169969|  4.2618e-05|    0.041240|
|        1880|  5.3421e+01|  5.3421e+01|   -8.136313|  4.3724e-05|    0.041208|
|        1890|  5.3421e+01|  5.3421e+01|   -8.117397|  4.6028e-05|    0.041144|
|        1900|  5.3421e+01|  5.3421e+01|   -8.099398|  4.8266e-05|    0.041065|
|        1910|  5.3421e+01|  5.3421e+01|   -8.082783|  5.0262e-05|    0.040972|
|        1920|  5.3421e+01|  5.3421e+01|   -8.069933|  5.1730e-05|    0.040871|
|        1930|  5.3421e+00|  5.3421e+00|   -8.061584|  5.3166e-05|    0.040767|
|        1940|  3.3077e+01|  3.3077e+01|   -8.102760|  5.2838e-05|    0.040738|
|        1950|  1.7067e+01|  1.7067e+01|   -8.106969|  5.3156e-05|    0.040693|
|        1960|  5.0962e+01|  5.0962e+01|   -8.072061|  5.4230e-05|    0.040623|
|        1970|  5.0962e+01|  5.0962e+01|   -8.068590|  5.5658e-05|    0.040530|
|        1980|  5.0962e+01|  5.0962e+01|   -8.069603|  5.7557e-05|    0.040445|
|        1990|  5.0962e+01|  5.0962e+01|   -8.072045|  5.9145e-05|    0.040368|
|        2000|  5.0962e+01|  5.0962e+01|   -8.076264|  5.9787e-05|    0.040300|
+-----------------------------------------------------------------------+
|        File Writing Summary       |              Filename             |
+-----------------------------------------------------------------------+
|SU2 binary restart                 |restart_flow_G4.dat                |
|Paraview                           |flow_G4.vtu                        |
|Paraview surface                   |surface_flow_G4.vtu                |
+-----------------------------------------------------------------------+
+-----------------------------------------------------------------------------+
|  Inner_Iter|     Min CFL|     Max CFL|      rms[P]|  Cauchy[CD]|          CD|
+-----------------------------------------------------------------------------+
|        2010|  5.0962e+01|  5.0962e+01|   -8.081975|  5.9875e-05|    0.040238|
|        2020|  1.2681e+01|  1.2681e+01|   -8.099729|  5.7664e-05|    0.040197|
|        2030|  6.5431e+00|  6.5431e+00|   -8.096167|  5.5481e-05|    0.040165|
|        2040|  4.0513e+01|  4.0513e+01|   -8.116500|  5.3416e-05|    0.040145|
|        2050|  2.0904e+01|  2.0904e+01|   -8.120892|  5.2188e-05|    0.040118|
|        2060|  1.0786e+01|  1.0786e+01|   -8.091600|  5.1838e-05|    0.040082|
|        2070|  5.5653e+01|  5.5653e+01|   -8.123144|  5.1756e-05|    0.040045|
|        2080|  5.5653e+01|  5.5653e+01|   -8.122081|  5.3962e-05|    0.039967|
|        2090|  5.5653e+01|  5.5653e+01|   -8.134199|  5.6620e-05|    0.039881|
|        2100|  5.5653e+01|  5.5653e+01|   -8.149046|  5.9708e-05|    0.039787|
|        2110|  9.6168e+00|  9.6168e+00|   -8.146165|  6.1897e-05|    0.039717|
|        2120|  5.9545e+01|  5.9545e+01|   -8.194082|  6.2676e-05|    0.039673|
|        2130|  3.0724e+01|  3.0724e+01|   -8.215813|  6.2703e-05|    0.039641|
|        2140|  5.3091e+01|  5.3091e+01|   -8.208102|  6.3444e-05|    0.039558|
|        2150|  1.9023e+01|  1.9023e+01|   -8.248041|  6.1850e-05|    0.039518|
|        2160|  9.8156e+00|  9.8156e+00|   -8.222712|  5.9956e-05|    0.039473|
|        2170|  5.0646e+01|  5.0646e+01|   -8.258214|  5.7650e-05|    0.039430|
|        2180|  5.0646e+01|  5.0646e+01|   -8.269551|  5.6781e-05|    0.039347|
|        2190|  5.0646e+01|  5.0646e+01|   -8.290440|  5.8727e-05|    0.039270|
|        2200|  5.0646e+01|  5.0646e+01|   -8.306292|  5.9769e-05|    0.039199|
+-----------------------------------------------------------------------+
|        File Writing Summary       |              Filename             |
+-----------------------------------------------------------------------+
|SU2 binary restart                 |restart_flow_G4.dat                |
|Paraview                           |flow_G4.vtu                        |
|Paraview surface                   |surface_flow_G4.vtu                |
+-----------------------------------------------------------------------+
+-----------------------------------------------------------------------------+
|  Inner_Iter|     Min CFL|     Max CFL|      rms[P]|  Cauchy[CD]|          CD|
+-----------------------------------------------------------------------------+
|        2210|  7.2931e+00|  7.2931e+00|   -8.314553|  5.9433e-05|    0.039137|
|        2220|  4.5157e+01|  4.5157e+01|   -8.346165|  5.6729e-05|    0.039112|
|        2230|  2.3300e+01|  2.3300e+01|   -8.360090|  5.4243e-05|    0.039089|
|        2240|  1.2022e+01|  1.2022e+01|   -8.354237|  5.2430e-05|    0.039057|
|        2250|  6.2032e+00|  6.2032e+00|   -8.342930|  5.1221e-05|    0.039020|
|        2260|  3.8409e+01|  3.8409e+01|   -8.365383|  4.9549e-05|    0.039000|
|        2270|  1.9818e+01|  1.9818e+01|   -8.371585|  4.8909e-05|    0.038975|
|        2280|  1.0226e+01|  1.0226e+01|   -8.326420|  4.8958e-05|    0.038941|
|        2290|  1.0000e+00|  1.0000e+00|   -8.355139|  4.8364e-05|    0.038936|
|        2300|  1.0000e+00|  1.0000e+00|   -8.368785|  4.7356e-05|    0.038934|
|        2310|  1.0000e+00|  1.0000e+00|   -8.371487|  4.5946e-05|    0.038933|
|        2320|  1.0000e+00|  1.0000e+00|   -8.375455|  4.4535e-05|    0.038932|
|        2330|  5.1598e+00|  5.1598e+00|   -8.378795|  4.1534e-05|    0.038929|
|        2340|  3.1948e+01|  3.1948e+01|   -8.374137|  3.8762e-05|    0.038912|
|        2350|  5.5206e+01|  5.5206e+01|   -8.344027|  3.7509e-05|    0.038850|
|        2360|  5.5206e+01|  5.5206e+01|   -8.341714|  3.7597e-05|    0.038777|
|        2370|  5.5206e+01|  5.5206e+01|   -8.338505|  3.8858e-05|    0.038701|
|        2380|  5.5206e+01|  5.5206e+01|   -8.338601|  4.0641e-05|    0.038625|
|        2390|  5.5206e+01|  5.5206e+01|   -8.341839|  4.0397e-05|    0.038548|
|        2400|  5.5206e+01|  5.5206e+01|   -8.349022|  4.1873e-05|    0.038471|
+-----------------------------------------------------------------------+
|        File Writing Summary       |              Filename             |
+-----------------------------------------------------------------------+
|SU2 binary restart                 |restart_flow_G4.dat                |
|Paraview                           |flow_G4.vtu                        |
|Paraview surface                   |surface_flow_G4.vtu                |
+-----------------------------------------------------------------------+
+-----------------------------------------------------------------------------+
|  Inner_Iter|     Min CFL|     Max CFL|      rms[P]|  Cauchy[CD]|          CD|
+-----------------------------------------------------------------------------+
|        2410|  1.3737e+01|  1.3737e+01|   -8.390974|  4.1802e-05|    0.038428|
|        2420|  7.0880e+00|  7.0880e+00|   -8.366376|  4.1661e-05|    0.038388|
|        2430|  4.3887e+01|  4.3887e+01|   -8.400515|  3.9348e-05|    0.038364|
|        2440|  5.2665e+01|  5.2665e+01|   -8.386724|  3.8878e-05|    0.038298|
|        2450|  5.2665e+01|  5.2665e+01|   -8.399906|  3.8559e-05|    0.038235|
|        2460|  5.2665e+01|  5.2665e+01|   -8.408687|  3.8501e-05|    0.038174|
|        2470|  5.2665e+01|  5.2665e+01|   -8.419691|  3.9813e-05|    0.038117|
|        2480|  5.2665e+01|  5.2665e+01|   -8.429077|  4.1070e-05|    0.038062|
|        2490|  5.2665e+01|  5.2665e+01|   -8.436843|  4.1937e-05|    0.038009|
|        2500|  5.2665e+01|  5.2665e+01|   -8.443144|  4.2551e-05|    0.037956|
|        2510|  1.8871e+01|  1.8871e+01|   -8.482702|  4.2931e-05|    0.037926|
|        2520|  9.7369e+00|  9.7369e+00|   -8.437580|  4.3032e-05|    0.037899|
|        2530|  6.0288e+01|  6.0288e+01|   -8.470793|  4.2761e-05|    0.037872|
|        2540|  3.1107e+01|  3.1107e+01|   -8.488225|  4.3330e-05|    0.037853|
|        2550|  5.3753e+01|  5.3753e+01|   -8.461271|  4.5336e-05|    0.037801|
|        2560|  5.3753e+01|  5.3753e+01|   -8.459545|  4.7636e-05|    0.037742|
|        2570|  5.3753e+01|  5.3753e+01|   -8.457522|  5.0001e-05|    0.037682|
|        2580|  5.3753e+01|  5.3753e+01|   -8.457049|  5.2305e-05|    0.037621|
|        2590|  5.3753e+01|  5.3753e+01|   -8.457021|  5.3963e-05|    0.037563|
|        2600|  5.3753e+00|  5.3753e+00|   -8.458026|  5.3762e-05|    0.037506|
+-----------------------------------------------------------------------+
|        File Writing Summary       |              Filename             |
+-----------------------------------------------------------------------+
|SU2 binary restart                 |restart_flow_G4.dat                |
|Paraview                           |flow_G4.vtu                        |
|Paraview surface                   |surface_flow_G4.vtu                |
+-----------------------------------------------------------------------+
+-----------------------------------------------------------------------------+
|  Inner_Iter|     Min CFL|     Max CFL|      rms[P]|  Cauchy[CD]|          CD|
+-----------------------------------------------------------------------------+
|        2610|  3.3283e+01|  3.3283e+01|   -8.486891|  5.1443e-05|    0.037491|
|        2620|  1.7173e+01|  1.7173e+01|   -8.488184|  4.9378e-05|    0.037467|
|        2630|  5.1279e+01|  5.1279e+01|   -8.469290|  4.7805e-05|    0.037429|
|        2640|  5.1279e+01|  5.1279e+01|   -8.469926|  4.6733e-05|    0.037380|
|        2650|  5.1279e+01|  5.1279e+01|   -8.473586|  4.5584e-05|    0.037332|
|        2660|  5.1279e+01|  5.1279e+01|   -8.477765|  4.5701e-05|    0.037285|
|        2670|  8.8610e+00|  8.8610e+00|   -8.449413|  4.5652e-05|    0.037247|
|        2680|  5.4865e+01|  5.4865e+01|   -8.499021|  4.5482e-05|    0.037227|
|        2690|  2.8309e+01|  2.8309e+01|   -8.510277|  4.3451e-05|    0.037212|
|        2700|  1.4607e+01|  1.4607e+01|   -8.504665|  4.1778e-05|    0.037191|
|        2710|  5.2339e+01|  5.2339e+01|   -8.500937|  4.0539e-05|    0.037161|
|        2720|  5.2339e+01|  5.2339e+01|   -8.509927|  4.0051e-05|    0.037115|
|        2730|  5.2339e+01|  5.2339e+01|   -8.519050|  3.9758e-05|    0.037068|
|        2740|  5.2339e+01|  5.2339e+01|   -8.529494|  3.9571e-05|    0.037020|
|        2750|  5.2339e+01|  5.2339e+01|   -8.542074|  3.9372e-05|    0.036972|
|        2760|  5.2339e+01|  5.2339e+01|   -8.556193|  4.0104e-05|    0.036924|
|        2770|  5.2339e+01|  5.2339e+01|   -8.570761|  4.0903e-05|    0.036876|
|        2780|  7.5368e+00|  7.5368e+00|   -8.554393|  4.1402e-05|    0.036837|
|        2790|  4.6666e+01|  4.6666e+01|   -8.612896|  4.1331e-05|    0.036819|
|        2800|  2.4079e+01|  2.4079e+01|   -8.625857|  3.9961e-05|    0.036802|
+-----------------------------------------------------------------------+
|        File Writing Summary       |              Filename             |
+-----------------------------------------------------------------------+
|SU2 binary restart                 |restart_flow_G4.dat                |
|Paraview                           |flow_G4.vtu                        |
|Paraview surface                   |surface_flow_G4.vtu                |
+-----------------------------------------------------------------------+
+-----------------------------------------------------------------------------+
|  Inner_Iter|     Min CFL|     Max CFL|      rms[P]|  Cauchy[CD]|          CD|
+-----------------------------------------------------------------------------+
|        2810|  4.9929e+01|  4.9929e+01|   -8.612939|  3.9069e-05|    0.036766|
|        2820|  4.9929e+01|  4.9929e+01|   -8.628882|  3.8311e-05|    0.036724|
|        2830|  4.9929e+01|  4.9929e+01|   -8.637848|  3.7498e-05|    0.036684|
|        2840|  4.9929e+01|  4.9929e+01|   -8.648191|  3.6724e-05|    0.036644|
|        2850|  4.9929e+01|  4.9929e+01|   -8.656124|  3.5972e-05|    0.036606|
|        2860|  4.9929e+01|  4.9929e+01|   -8.661801|  3.6839e-05|    0.036570|
|        2870|  4.9929e+01|  4.9929e+01|   -8.665081|  3.7328e-05|    0.036534|
|        2880|  4.9929e+01|  4.9929e+01|   -8.667529|  3.7287e-05|    0.036497|
|        2890|  4.9929e+01|  4.9929e+01|   -8.669662|  3.6772e-05|    0.036460|
|        2900|  4.9929e+01|  4.9929e+01|   -8.671378|  3.6341e-05|    0.036423|
|        2910|  4.9929e+01|  4.9929e+01|   -8.672502|  3.5962e-05|    0.036386|
|        2920|  4.9929e+01|  4.9929e+01|   -8.673964|  3.5916e-05|    0.036349|
|        2930|  4.9929e+01|  4.9929e+01|   -8.676674|  3.6583e-05|    0.036312|
|        2940|  4.9929e+01|  4.9929e+01|   -8.680649|  3.7479e-05|    0.036275|
|        2950|  4.9929e+01|  4.9929e+01|   -8.685502|  3.8072e-05|    0.036239|
|        2960|  4.9929e+01|  4.9929e+01|   -8.691137|  3.8304e-05|    0.036203|
|        2970|  4.9929e+01|  4.9929e+01|   -8.697508|  3.7863e-05|    0.036169|
|        2980|  7.1898e+00|  7.1898e+00|   -8.681760|  3.7078e-05|    0.036141|
|        2990|  4.4517e+01|  4.4517e+01|   -8.724691|  3.5646e-05|    0.036129|
|        3000|  2.2970e+01|  2.2970e+01|   -8.732666|  3.4198e-05|    0.036117|
+-----------------------------------------------------------------------+
|        File Writing Summary       |              Filename             |
+-----------------------------------------------------------------------+
|SU2 binary restart                 |restart_flow_G4.dat                |
|Paraview                           |flow_G4.vtu                        |
|Paraview surface                   |surface_flow_G4.vtu                |
+-----------------------------------------------------------------------+
+-----------------------------------------------------------------------------+
|  Inner_Iter|     Min CFL|     Max CFL|      rms[P]|  Cauchy[CD]|          CD|
+-----------------------------------------------------------------------------+
|        3010|  4.7631e+01|  4.7631e+01|   -8.720447|  3.3314e-05|    0.036091|
|        3020|  4.7631e+01|  4.7631e+01|   -8.728964|  3.2597e-05|    0.036061|
|        3030|  4.7631e+01|  4.7631e+01|   -8.733787|  3.2207e-05|    0.036032|
|        3040|  4.7631e+01|  4.7631e+01|   -8.740053|  3.2653e-05|    0.036003|
|        3050|  4.7631e+01|  4.7631e+01|   -8.746423|  3.3126e-05|    0.035974|
|        3060|  1.4222e+01|  1.4222e+01|   -8.771824|  3.2368e-05|    0.035956|
|        3070|  7.3385e+00|  7.3385e+00|   -8.734202|  3.1309e-05|    0.035941|
|        3080|  4.5438e+01|  4.5438e+01|   -8.773329|  3.0160e-05|    0.035930|
|        3090|  2.3445e+01|  2.3445e+01|   -8.781229|  2.9036e-05|    0.035919|
|        3100|  4.8615e+01|  4.8615e+01|   -8.766909|  2.8505e-05|    0.035894|
|        3110|  4.8615e+01|  4.8615e+01|   -8.772108|  2.8219e-05|    0.035864|
|        3120|  4.8615e+01|  4.8615e+01|   -8.775781|  2.7974e-05|    0.035834|
|        3130|  4.8615e+01|  4.8615e+01|   -8.780224|  2.7730e-05|    0.035804|
|        3140|  4.8615e+01|  4.8615e+01|   -8.783939|  2.7436e-05|    0.035775|
|        3150|  4.8615e+01|  4.8615e+01|   -8.787444|  2.7097e-05|    0.035746|
|        3160|  4.8615e+01|  4.8615e+01|   -8.791114|  2.6738e-05|    0.035718|
|        3170|  8.4007e+00|  8.4007e+00|   -8.772594|  2.6078e-05|    0.035697|
|        3180|  5.2015e+01|  5.2015e+01|   -8.810341|  2.5106e-05|    0.035684|
|        3190|  2.6839e+01|  2.6839e+01|   -8.822317|  2.3991e-05|    0.035675|
|        3200|  4.6377e+01|  4.6377e+01|   -8.804313|  2.3457e-05|    0.035652|
+-----------------------------------------------------------------------+
|        File Writing Summary       |              Filename             |
+-----------------------------------------------------------------------+
|SU2 binary restart                 |restart_flow_G4.dat                |
|Paraview                           |flow_G4.vtu                        |
|Paraview surface                   |surface_flow_G4.vtu                |
+-----------------------------------------------------------------------+
+-----------------------------------------------------------------------------+
|  Inner_Iter|     Min CFL|     Max CFL|      rms[P]|  Cauchy[CD]|          CD|
+-----------------------------------------------------------------------------+
|        3210|  4.6377e+01|  4.6377e+01|   -8.806947|  2.3044e-05|    0.035627|
|        3220|  4.6377e+01|  4.6377e+01|   -8.808404|  2.2651e-05|    0.035603|
|        3230|  4.6377e+01|  4.6377e+01|   -8.810721|  2.2531e-05|    0.035578|
|        3240|  4.6377e+01|  4.6377e+01|   -8.813196|  2.2996e-05|    0.035554|
|        3250|  4.6377e+01|  4.6377e+01|   -8.816011|  2.3476e-05|    0.035530|
|        3260|  4.6377e+01|  4.6377e+01|   -8.818788|  2.3402e-05|    0.035506|
|        3270|  1.9941e+01|  1.9941e+01|   -8.838051|  2.2673e-05|    0.035494|
|        3280|  1.0289e+01|  1.0289e+01|   -8.833124|  2.1974e-05|    0.035483|
|        3290|  5.3091e+00|  5.3091e+00|   -8.830795|  2.1351e-05|    0.035469|
|        3300|  3.2872e+01|  3.2872e+01|   -8.845117|  2.0481e-05|    0.035462|
|        3310|  4.7336e+01|  4.7336e+01|   -8.831370|  2.0702e-05|    0.035439|
|        3320|  4.7336e+01|  4.7336e+01|   -8.835745|  2.1089e-05|    0.035414|
|        3330|  4.7336e+01|  4.7336e+01|   -8.839068|  2.1618e-05|    0.035389|
|        3340|  4.7336e+01|  4.7336e+01|   -8.843064|  2.2151e-05|    0.035365|
|        3350|  4.7336e+01|  4.7336e+01|   -8.847282|  2.2124e-05|    0.035341|
|        3360|  4.7336e+01|  4.7336e+01|   -8.852135|  2.1882e-05|    0.035317|
|        3370|  8.1797e+00|  8.1797e+00|   -8.839478|  2.1365e-05|    0.035300|
|        3380|  5.0646e+01|  5.0646e+01|   -8.871987|  2.0584e-05|    0.035289|
|        3390|  2.6132e+01|  2.6132e+01|   -8.883202|  1.9706e-05|    0.035282|
|        3400|  4.5157e+01|  4.5157e+01|   -8.869247|  1.9331e-05|    0.035263|
+-----------------------------------------------------------------------+
|        File Writing Summary       |              Filename             |
+-----------------------------------------------------------------------+
|SU2 binary restart                 |restart_flow_G4.dat                |
|Paraview                           |flow_G4.vtu                        |
|Paraview surface                   |surface_flow_G4.vtu                |
+-----------------------------------------------------------------------+
+-----------------------------------------------------------------------------+
|  Inner_Iter|     Min CFL|     Max CFL|      rms[P]|  Cauchy[CD]|          CD|
+-----------------------------------------------------------------------------+
|        3410|  4.5157e+01|  4.5157e+01|   -8.874451|  1.9057e-05|    0.035241|
|        3420|  4.5157e+01|  4.5157e+01|   -8.878061|  1.9071e-05|    0.035220|
|        3430|  4.5157e+01|  4.5157e+01|   -8.881883|  1.9391e-05|    0.035200|
|        3440|  4.5157e+01|  4.5157e+01|   -8.885910|  1.9851e-05|    0.035179|
|        3450|  4.5157e+01|  4.5157e+01|   -8.889940|  1.9736e-05|    0.035159|
|        3460|  4.5157e+01|  4.5157e+01|   -8.893630|  1.9532e-05|    0.035139|
|        3470|  4.5157e+01|  4.5157e+01|   -8.896870|  1.9347e-05|    0.035119|
|        3480|  4.5157e+01|  4.5157e+01|   -8.900061|  1.9168e-05|    0.035099|
|        3490|  4.5157e+01|  4.5157e+01|   -8.903795|  1.8999e-05|    0.035079|
|        3500|  4.5157e+01|  4.5157e+01|   -8.907923|  1.8842e-05|    0.035059|
|        3510|  4.5157e+01|  4.5157e+01|   -8.912046|  1.8689e-05|    0.035039|
|        3520|  4.5157e+01|  4.5157e+01|   -8.916107|  1.9024e-05|    0.035019|
|        3530|  4.5157e+01|  4.5157e+01|   -8.920469|  1.9342e-05|    0.034999|
|        3540|  4.5157e+01|  4.5157e+01|   -8.925098|  1.9574e-05|    0.034980|
|        3550|  4.5157e+01|  4.5157e+01|   -8.929750|  2.0053e-05|    0.034961|
|        3560|  4.5157e+01|  4.5157e+01|   -8.934397|  1.9885e-05|    0.034942|
|        3570|  4.5157e+01|  4.5157e+01|   -8.939160|  1.9641e-05|    0.034923|
|        3580|  4.5157e+01|  4.5157e+01|   -8.943982|  1.9386e-05|    0.034905|
|        3590|  4.5157e+01|  4.5157e+01|   -8.948770|  1.9121e-05|    0.034887|
|        3600|  4.5157e+01|  4.5157e+01|   -8.953463|  1.8869e-05|    0.034869|
+-----------------------------------------------------------------------+
|        File Writing Summary       |              Filename             |
+-----------------------------------------------------------------------+
|SU2 binary restart                 |restart_flow_G4.dat                |
|Paraview                           |flow_G4.vtu                        |
|Paraview surface                   |surface_flow_G4.vtu                |
+-----------------------------------------------------------------------+
+-----------------------------------------------------------------------------+
|  Inner_Iter|     Min CFL|     Max CFL|      rms[P]|  Cauchy[CD]|          CD|
+-----------------------------------------------------------------------------+
|        3610|  4.5157e+01|  4.5157e+01|   -8.957995|  1.8630e-05|    0.034851|
|        3620|  4.5157e+01|  4.5157e+01|   -8.962341|  1.8642e-05|    0.034834|
|        3630|  4.5157e+01|  4.5157e+01|   -8.966510|  1.8909e-05|    0.034817|
|        3640|  4.5157e+01|  4.5157e+01|   -8.970670|  1.9297e-05|    0.034799|
|        3650|  4.5157e+01|  4.5157e+01|   -8.974933|  1.9214e-05|    0.034782|
|        3660|  4.5157e+01|  4.5157e+01|   -8.979164|  1.9047e-05|    0.034765|
|        3670|  4.5157e+01|  4.5157e+01|   -8.983208|  1.8894e-05|    0.034748|
|        3680|  4.5157e+01|  4.5157e+01|   -8.987100|  1.8743e-05|    0.034731|
|        3690|  4.5157e+01|  4.5157e+01|   -8.990987|  1.8598e-05|    0.034714|
|        3700|  4.5157e+01|  4.5157e+01|   -8.994939|  1.8463e-05|    0.034697|
|        3710|  4.5157e+01|  4.5157e+01|   -8.998912|  1.8327e-05|    0.034681|
|        3720|  4.5157e+01|  4.5157e+01|   -9.002796|  1.8184e-05|    0.034664|
|        3730|  4.5157e+01|  4.5157e+01|   -9.006505|  1.8029e-05|    0.034648|
|        3740|  4.5157e+01|  4.5157e+01|   -9.010067|  1.7861e-05|    0.034632|
|        3750|  4.5157e+01|  4.5157e+01|   -9.013547|  1.7686e-05|    0.034616|
|        3760|  4.5157e+01|  4.5157e+01|   -9.016986|  1.7507e-05|    0.034601|
|        3770|  4.5157e+01|  4.5157e+01|   -9.020367|  1.7327e-05|    0.034586|
|        3780|  4.5157e+01|  4.5157e+01|   -9.023630|  1.7147e-05|    0.034571|
|        3790|  4.5157e+01|  4.5157e+01|   -9.026777|  1.6969e-05|    0.034556|
|        3800|  4.5157e+01|  4.5157e+01|   -9.029862|  1.6796e-05|    0.034541|
+-----------------------------------------------------------------------+
|        File Writing Summary       |              Filename             |
+-----------------------------------------------------------------------+
|SU2 binary restart                 |restart_flow_G4.dat                |
|Paraview                           |flow_G4.vtu                        |
|Paraview surface                   |surface_flow_G4.vtu                |
+-----------------------------------------------------------------------+
+-----------------------------------------------------------------------------+
|  Inner_Iter|     Min CFL|     Max CFL|      rms[P]|  Cauchy[CD]|          CD|
+-----------------------------------------------------------------------------+
|        3810|  4.5157e+01|  4.5157e+01|   -9.032970|  1.6633e-05|    0.034526|
|        3820|  4.5157e+01|  4.5157e+01|   -9.036168|  1.6480e-05|    0.034511|
|        3830|  4.5157e+01|  4.5157e+01|   -9.039426|  1.6337e-05|    0.034496|
|        3840|  4.5157e+01|  4.5157e+01|   -9.042716|  1.6202e-05|    0.034482|
|        3850|  4.5157e+01|  4.5157e+01|   -9.046075|  1.6074e-05|    0.034467|
|        3860|  4.5157e+01|  4.5157e+01|   -9.049533|  1.5950e-05|    0.034453|
|        3870|  4.5157e+01|  4.5157e+01|   -9.053129|  1.5829e-05|    0.034438|
|        3880|  4.5157e+01|  4.5157e+01|   -9.056853|  1.5707e-05|    0.034424|
|        3890|  4.5157e+01|  4.5157e+01|   -9.060700|  1.5581e-05|    0.034410|
|        3900|  4.5157e+01|  4.5157e+01|   -9.064627|  1.5450e-05|    0.034396|
|        3910|  4.5157e+01|  4.5157e+01|   -9.068613|  1.5313e-05|    0.034382|
|        3920|  4.5157e+01|  4.5157e+01|   -9.072665|  1.5172e-05|    0.034369|
|        3930|  4.5157e+01|  4.5157e+01|   -9.076760|  1.5026e-05|    0.034355|
|        3940|  4.5157e+01|  4.5157e+01|   -9.080896|  1.4878e-05|    0.034342|
|        3950|  4.5157e+01|  4.5157e+01|   -9.085036|  1.4731e-05|    0.034329|
|        3960|  4.5157e+01|  4.5157e+01|   -9.089177|  1.4584e-05|    0.034316|
|        3970|  4.5157e+01|  4.5157e+01|   -9.093309|  1.4442e-05|    0.034303|
|        3980|  4.5157e+01|  4.5157e+01|   -9.097424|  1.4305e-05|    0.034291|
|        3990|  4.5157e+01|  4.5157e+01|   -9.101541|  1.4174e-05|    0.034278|
|        4000|  4.5157e+01|  4.5157e+01|   -9.105658|  1.4050e-05|    0.034265|
+-----------------------------------------------------------------------+
|        File Writing Summary       |              Filename             |
+-----------------------------------------------------------------------+
|SU2 binary restart                 |restart_flow_G4.dat                |
|Paraview                           |flow_G4.vtu                        |
|Paraview surface                   |surface_flow_G4.vtu                |
+-----------------------------------------------------------------------+
+-----------------------------------------------------------------------------+
|  Inner_Iter|     Min CFL|     Max CFL|      rms[P]|  Cauchy[CD]|          CD|
+-----------------------------------------------------------------------------+
|        4010|  4.5157e+01|  4.5157e+01|   -9.109793|  1.3933e-05|    0.034253|
|        4020|  4.5157e+01|  4.5157e+01|   -9.113944|  1.3820e-05|    0.034240|
|        4030|  4.5157e+01|  4.5157e+01|   -9.118105|  1.3710e-05|    0.034228|
|        4040|  4.5157e+01|  4.5157e+01|   -9.122272|  1.3602e-05|    0.034215|
|        4050|  4.5157e+01|  4.5157e+01|   -9.126449|  1.3494e-05|    0.034203|
|        4060|  4.5157e+01|  4.5157e+01|   -9.130618|  1.3383e-05|    0.034191|
|        4070|  4.5157e+01|  4.5157e+01|   -9.134789|  1.3270e-05|    0.034179|
|        4080|  4.5157e+01|  4.5157e+01|   -9.138960|  1.3153e-05|    0.034168|
|        4090|  4.5157e+01|  4.5157e+01|   -9.143109|  1.3032e-05|    0.034156|
|        4100|  4.5157e+01|  4.5157e+01|   -9.147226|  1.2909e-05|    0.034144|
|        4110|  4.5157e+01|  4.5157e+01|   -9.151312|  1.2784e-05|    0.034133|
|        4120|  4.5157e+01|  4.5157e+01|   -9.155354|  1.2658e-05|    0.034122|
|        4130|  4.5157e+01|  4.5157e+01|   -9.159372|  1.2533e-05|    0.034111|
|        4140|  4.5157e+01|  4.5157e+01|   -9.163358|  1.2410e-05|    0.034100|
|        4150|  4.5157e+01|  4.5157e+01|   -9.167327|  1.2291e-05|    0.034089|
|        4160|  4.5157e+01|  4.5157e+01|   -9.171269|  1.2177e-05|    0.034078|
|        4170|  4.5157e+01|  4.5157e+01|   -9.175220|  1.2066e-05|    0.034067|
|        4180|  4.5157e+01|  4.5157e+01|   -9.179172|  1.1960e-05|    0.034056|
|        4190|  4.5157e+01|  4.5157e+01|   -9.183123|  1.1858e-05|    0.034046|
|        4200|  4.5157e+01|  4.5157e+01|   -9.187082|  1.1758e-05|    0.034035|
+-----------------------------------------------------------------------+
|        File Writing Summary       |              Filename             |
+-----------------------------------------------------------------------+
|SU2 binary restart                 |restart_flow_G4.dat                |
|Paraview                           |flow_G4.vtu                        |
|Paraview surface                   |surface_flow_G4.vtu                |
+-----------------------------------------------------------------------+
+-----------------------------------------------------------------------------+
|  Inner_Iter|     Min CFL|     Max CFL|      rms[P]|  Cauchy[CD]|          CD|
+-----------------------------------------------------------------------------+
|        4210|  4.5157e+01|  4.5157e+01|   -9.191058|  1.1659e-05|    0.034025|
|        4220|  4.5157e+01|  4.5157e+01|   -9.195019|  1.1561e-05|    0.034014|
|        4230|  4.5157e+01|  4.5157e+01|   -9.198996|  1.1463e-05|    0.034004|
|        4240|  4.5157e+01|  4.5157e+01|   -9.202981|  1.1363e-05|    0.033994|
|        4250|  4.5157e+01|  4.5157e+01|   -9.206943|  1.1260e-05|    0.033984|
|        4260|  4.5157e+01|  4.5157e+01|   -9.210875|  1.1156e-05|    0.033974|
|        4270|  4.5157e+01|  4.5157e+01|   -9.214775|  1.1049e-05|    0.033964|
|        4280|  4.5157e+01|  4.5157e+01|   -9.218634|  1.0942e-05|    0.033954|
|        4290|  4.5157e+01|  4.5157e+01|   -9.222453|  1.0834e-05|    0.033945|
|        4300|  4.5157e+01|  4.5157e+01|   -9.226224|  1.0727e-05|    0.033935|
|        4310|  4.5157e+01|  4.5157e+01|   -9.229957|  1.0621e-05|    0.033926|
|        4320|  4.5157e+01|  4.5157e+01|   -9.233650|  1.0518e-05|    0.033916|
|        4330|  4.5157e+01|  4.5157e+01|   -9.237313|  1.0418e-05|    0.033907|
|        4340|  4.5157e+01|  4.5157e+01|   -9.240953|  1.0322e-05|    0.033898|
|        4350|  4.5157e+01|  4.5157e+01|   -9.244588|  1.0228e-05|    0.033889|
|        4360|  4.5157e+01|  4.5157e+01|   -9.248231|  1.0137e-05|    0.033880|
|        4370|  4.5157e+01|  4.5157e+01|   -9.251896|  1.0049e-05|    0.033871|
|        4380|  4.5157e+01|  4.5157e+01|   -9.255577|  9.9616e-06|    0.033862|
|        4390|  4.5157e+01|  4.5157e+01|   -9.259326|  9.8755e-06|    0.033853|
|        4400|  4.5157e+01|  4.5157e+01|   -9.263125|  9.7893e-06|    0.033844|
+-----------------------------------------------------------------------+
|        File Writing Summary       |              Filename             |
+-----------------------------------------------------------------------+
|SU2 binary restart                 |restart_flow_G4.dat                |
|Paraview                           |flow_G4.vtu                        |
|Paraview surface                   |surface_flow_G4.vtu                |
+-----------------------------------------------------------------------+
+-----------------------------------------------------------------------------+
|  Inner_Iter|     Min CFL|     Max CFL|      rms[P]|  Cauchy[CD]|          CD|
+-----------------------------------------------------------------------------+
|        4410|  4.5157e+01|  4.5157e+01|   -9.266969|  9.7025e-06|    0.033835|
|        4420|  4.5157e+01|  4.5157e+01|   -9.270859|  9.6147e-06|    0.033827|
|        4430|  4.5157e+01|  4.5157e+01|   -9.274803|  9.5258e-06|    0.033818|
|        4440|  4.5157e+01|  4.5157e+01|   -9.278785|  9.4361e-06|    0.033810|
|        4450|  4.5157e+01|  4.5157e+01|   -9.282799|  9.3457e-06|    0.033802|
|        4460|  4.5157e+01|  4.5157e+01|   -9.286824|  9.2551e-06|    0.033793|
|        4470|  4.5157e+01|  4.5157e+01|   -9.290850|  9.1651e-06|    0.033785|
|        4480|  4.5157e+01|  4.5157e+01|   -9.294877|  9.0761e-06|    0.033777|
|        4490|  4.5157e+01|  4.5157e+01|   -9.298894|  8.9889e-06|    0.033769|
|        4500|  4.5157e+01|  4.5157e+01|   -9.302904|  8.9040e-06|    0.033761|
|        4510|  4.5157e+01|  4.5157e+01|   -9.306900|  8.8214e-06|    0.033753|
|        4520|  4.5157e+01|  4.5157e+01|   -9.310909|  8.7411e-06|    0.033745|
|        4530|  4.5157e+01|  4.5157e+01|   -9.314856|  8.6631e-06|    0.033738|
|        4540|  4.5157e+01|  4.5157e+01|   -9.318779|  8.5868e-06|    0.033730|
|        4550|  4.5157e+01|  4.5157e+01|   -9.322687|  8.5119e-06|    0.033722|
|        4560|  4.5157e+01|  4.5157e+01|   -9.326597|  8.4378e-06|    0.033715|
|        4570|  4.5157e+01|  4.5157e+01|   -9.330513|  8.3640e-06|    0.033707|
|        4580|  4.5157e+01|  4.5157e+01|   -9.334437|  8.2901e-06|    0.033700|
|        4590|  4.5157e+01|  4.5157e+01|   -9.338363|  8.2157e-06|    0.033692|
|        4600|  4.5157e+01|  4.5157e+01|   -9.342301|  8.1407e-06|    0.033685|
+-----------------------------------------------------------------------+
|        File Writing Summary       |              Filename             |
+-----------------------------------------------------------------------+
|SU2 binary restart                 |restart_flow_G4.dat                |
|Paraview                           |flow_G4.vtu                        |
|Paraview surface                   |surface_flow_G4.vtu                |
+-----------------------------------------------------------------------+
+-----------------------------------------------------------------------------+
|  Inner_Iter|     Min CFL|     Max CFL|      rms[P]|  Cauchy[CD]|          CD|
+-----------------------------------------------------------------------------+
|        4610|  4.5157e+01|  4.5157e+01|   -9.346241|  8.0651e-06|    0.033678|
|        4620|  4.5157e+01|  4.5157e+01|   -9.350194|  7.9891e-06|    0.033671|
|        4630|  4.5157e+01|  4.5157e+01|   -9.354151|  7.9130e-06|    0.033664|
|        4640|  4.5157e+01|  4.5157e+01|   -9.358115|  7.8372e-06|    0.033657|
|        4650|  4.5157e+01|  4.5157e+01|   -9.362083|  7.7620e-06|    0.033650|
|        4660|  4.5157e+01|  4.5157e+01|   -9.366053|  7.6880e-06|    0.033643|
|        4670|  4.5157e+01|  4.5157e+01|   -9.370026|  7.6155e-06|    0.033636|
|        4680|  4.5157e+01|  4.5157e+01|   -9.373998|  7.5445e-06|    0.033630|
|        4690|  4.5157e+01|  4.5157e+01|   -9.377977|  7.4751e-06|    0.033623|
|        4700|  4.5157e+01|  4.5157e+01|   -9.381956|  7.4073e-06|    0.033616|
|        4710|  4.5157e+01|  4.5157e+01|   -9.385937|  7.3409e-06|    0.033610|
|        4720|  4.5157e+01|  4.5157e+01|   -9.389920|  7.2756e-06|    0.033603|
|        4730|  4.5157e+01|  4.5157e+01|   -9.393908|  7.2111e-06|    0.033597|
|        4740|  4.5157e+01|  4.5157e+01|   -9.397891|  7.1469e-06|    0.033590|
|        4750|  4.5157e+01|  4.5157e+01|   -9.401866|  7.0829e-06|    0.033584|
|        4760|  4.5157e+01|  4.5157e+01|   -9.405838|  7.0187e-06|    0.033578|
|        4770|  4.5157e+01|  4.5157e+01|   -9.409804|  6.9542e-06|    0.033572|
|        4780|  4.5157e+01|  4.5157e+01|   -9.413754|  6.8894e-06|    0.033565|
|        4790|  4.5157e+01|  4.5157e+01|   -9.417687|  6.8244e-06|    0.033559|
|        4800|  4.5157e+01|  4.5157e+01|   -9.421602|  6.7594e-06|    0.033553|
+-----------------------------------------------------------------------+
|        File Writing Summary       |              Filename             |
+-----------------------------------------------------------------------+
|SU2 binary restart                 |restart_flow_G4.dat                |
|Paraview                           |flow_G4.vtu                        |
|Paraview surface                   |surface_flow_G4.vtu                |
+-----------------------------------------------------------------------+
+-----------------------------------------------------------------------------+
|  Inner_Iter|     Min CFL|     Max CFL|      rms[P]|  Cauchy[CD]|          CD|
+-----------------------------------------------------------------------------+
|        4810|  4.5157e+01|  4.5157e+01|   -9.425494|  6.6946e-06|    0.033547|
|        4820|  4.5157e+01|  4.5157e+01|   -9.429365|  6.6304e-06|    0.033541|
|        4830|  4.5157e+01|  4.5157e+01|   -9.433215|  6.5669e-06|    0.033536|
|        4840|  4.5157e+01|  4.5157e+01|   -9.437050|  6.5045e-06|    0.033530|
|        4850|  4.5157e+01|  4.5157e+01|   -9.440877|  6.4433e-06|    0.033524|
|        4860|  4.5157e+01|  4.5157e+01|   -9.444698|  6.3834e-06|    0.033518|
|        4870|  4.5157e+01|  4.5157e+01|   -9.448519|  6.3247e-06|    0.033513|
|        4880|  4.5157e+01|  4.5157e+01|   -9.452346|  6.2672e-06|    0.033507|
|        4890|  4.5157e+01|  4.5157e+01|   -9.456189|  6.2106e-06|    0.033502|
|        4900|  4.5157e+01|  4.5157e+01|   -9.460052|  6.1548e-06|    0.033496|
|        4910|  4.5157e+01|  4.5157e+01|   -9.463940|  6.0995e-06|    0.033491|
|        4920|  4.5157e+01|  4.5157e+01|   -9.467848|  6.0444e-06|    0.033485|
|        4930|  4.5157e+01|  4.5157e+01|   -9.471783|  5.9895e-06|    0.033480|
|        4940|  4.5157e+01|  4.5157e+01|   -9.475739|  5.9346e-06|    0.033475|
|        4950|  4.5157e+01|  4.5157e+01|   -9.479711|  5.8796e-06|    0.033469|
|        4960|  4.5157e+01|  4.5157e+01|   -9.483689|  5.8247e-06|    0.033464|
|        4970|  4.5157e+01|  4.5157e+01|   -9.487674|  5.7698e-06|    0.033459|
|        4980|  4.5157e+01|  4.5157e+01|   -9.491660|  5.7151e-06|    0.033454|
|        4990|  4.5157e+01|  4.5157e+01|   -9.495635|  5.6609e-06|    0.033449|
|        5000|  4.5157e+01|  4.5157e+01|   -9.499595|  5.6073e-06|    0.033444|
+-----------------------------------------------------------------------+
|        File Writing Summary       |              Filename             |
+-----------------------------------------------------------------------+
|SU2 binary restart                 |restart_flow_G4.dat                |
|Paraview                           |flow_G4.vtu                        |
|Paraview surface                   |surface_flow_G4.vtu                |
+-----------------------------------------------------------------------+
+-----------------------------------------------------------------------------+
|  Inner_Iter|     Min CFL|     Max CFL|      rms[P]|  Cauchy[CD]|          CD|
+-----------------------------------------------------------------------------+
|        5010|  4.5157e+01|  4.5157e+01|   -9.503544|  5.5544e-06|    0.033439|
|        5020|  4.5157e+01|  4.5157e+01|   -9.507468|  5.5024e-06|    0.033434|
|        5030|  4.5157e+01|  4.5157e+01|   -9.511375|  5.4514e-06|    0.033429|
|        5040|  4.5157e+01|  4.5157e+01|   -9.515266|  5.4014e-06|    0.033424|
|        5050|  4.5157e+01|  4.5157e+01|   -9.519153|  5.3522e-06|    0.033420|
|        5060|  4.5157e+01|  4.5157e+01|   -9.523031|  5.3039e-06|    0.033415|
|        5070|  4.5157e+01|  4.5157e+01|   -9.526905|  5.2562e-06|    0.033410|
|        5080|  4.5157e+01|  4.5157e+01|   -9.530773|  5.2091e-06|    0.033405|
|        5090|  4.5157e+01|  4.5157e+01|   -9.534658|  5.1622e-06|    0.033401|
|        5100|  4.5157e+01|  4.5157e+01|   -9.538550|  5.1155e-06|    0.033396|
|        5110|  4.5157e+01|  4.5157e+01|   -9.542458|  5.0690e-06|    0.033392|
|        5120|  4.5157e+01|  4.5157e+01|   -9.546379|  5.0225e-06|    0.033387|
|        5130|  4.5157e+01|  4.5157e+01|   -9.550312|  4.9761e-06|    0.033383|
|        5140|  4.5157e+01|  4.5157e+01|   -9.554255|  4.9298e-06|    0.033378|
|        5150|  4.5157e+01|  4.5157e+01|   -9.558207|  4.8837e-06|    0.033374|
|        5160|  4.5157e+01|  4.5157e+01|   -9.562157|  4.8380e-06|    0.033370|
|        5170|  4.5157e+01|  4.5157e+01|   -9.566115|  4.7926e-06|    0.033365|
|        5180|  4.5157e+01|  4.5157e+01|   -9.570081|  4.7479e-06|    0.033361|
|        5190|  4.5157e+01|  4.5157e+01|   -9.574052|  4.7037e-06|    0.033357|
|        5200|  4.5157e+01|  4.5157e+01|   -9.578023|  4.6603e-06|    0.033353|
+-----------------------------------------------------------------------+
|        File Writing Summary       |              Filename             |
+-----------------------------------------------------------------------+
|SU2 binary restart                 |restart_flow_G4.dat                |
|Paraview                           |flow_G4.vtu                        |
|Paraview surface                   |surface_flow_G4.vtu                |
+-----------------------------------------------------------------------+
+-----------------------------------------------------------------------------+
|  Inner_Iter|     Min CFL|     Max CFL|      rms[P]|  Cauchy[CD]|          CD|
+-----------------------------------------------------------------------------+
|        5210|  4.5157e+01|  4.5157e+01|   -9.581991|  4.6176e-06|    0.033349|
|        5220|  4.5157e+01|  4.5157e+01|   -9.585956|  4.5755e-06|    0.033345|
|        5230|  4.5157e+01|  4.5157e+01|   -9.589909|  4.5341e-06|    0.033341|
|        5240|  4.5157e+01|  4.5157e+01|   -9.593874|  4.4933e-06|    0.033337|
|        5250|  4.5157e+01|  4.5157e+01|   -9.597828|  4.4529e-06|    0.033333|
|        5260|  4.5157e+01|  4.5157e+01|   -9.601781|  4.4128e-06|    0.033329|
|        5270|  4.5157e+01|  4.5157e+01|   -9.605729|  4.3729e-06|    0.033325|
|        5280|  4.5157e+01|  4.5157e+01|   -9.609679|  4.3332e-06|    0.033321|
|        5290|  4.5157e+01|  4.5157e+01|   -9.613626|  4.2936e-06|    0.033317|
|        5300|  4.5157e+01|  4.5157e+01|   -9.617568|  4.2542e-06|    0.033313|
|        5310|  4.5157e+01|  4.5157e+01|   -9.621508|  4.2148e-06|    0.033309|
|        5320|  4.5157e+01|  4.5157e+01|   -9.625444|  4.1756e-06|    0.033306|
|        5330|  4.5157e+01|  4.5157e+01|   -9.629380|  4.1367e-06|    0.033302|
|        5340|  4.5157e+01|  4.5157e+01|   -9.633313|  4.0981e-06|    0.033298|
|        5350|  4.5157e+01|  4.5157e+01|   -9.637245|  4.0600e-06|    0.033295|
|        5360|  4.5157e+01|  4.5157e+01|   -9.641176|  4.0222e-06|    0.033291|
|        5370|  4.5157e+01|  4.5157e+01|   -9.645106|  3.9851e-06|    0.033288|
|        5380|  4.5157e+01|  4.5157e+01|   -9.649036|  3.9484e-06|    0.033284|
|        5390|  4.5157e+01|  4.5157e+01|   -9.652974|  3.9123e-06|    0.033281|
|        5400|  4.5157e+01|  4.5157e+01|   -9.656917|  3.8767e-06|    0.033277|
+-----------------------------------------------------------------------+
|        File Writing Summary       |              Filename             |
+-----------------------------------------------------------------------+
|SU2 binary restart                 |restart_flow_G4.dat                |
|Paraview                           |flow_G4.vtu                        |
|Paraview surface                   |surface_flow_G4.vtu                |
+-----------------------------------------------------------------------+
+-----------------------------------------------------------------------------+
|  Inner_Iter|     Min CFL|     Max CFL|      rms[P]|  Cauchy[CD]|          CD|
+-----------------------------------------------------------------------------+
|        5410|  4.5157e+01|  4.5157e+01|   -9.660871|  3.8415e-06|    0.033274|
|        5420|  4.5157e+01|  4.5157e+01|   -9.664836|  3.8068e-06|    0.033270|
|        5430|  4.5157e+01|  4.5157e+01|   -9.668803|  3.7723e-06|    0.033267|
|        5440|  4.5157e+01|  4.5157e+01|   -9.672783|  3.7381e-06|    0.033264|
|        5450|  4.5157e+01|  4.5157e+01|   -9.676763|  3.7041e-06|    0.033260|
|        5460|  4.5157e+01|  4.5157e+01|   -9.680733|  3.6702e-06|    0.033257|
|        5470|  4.5157e+01|  4.5157e+01|   -9.684716|  3.6365e-06|    0.033254|
|        5480|  4.5157e+01|  4.5157e+01|   -9.688701|  3.6029e-06|    0.033250|
|        5490|  4.5157e+01|  4.5157e+01|   -9.692688|  3.5695e-06|    0.033247|
|        5500|  4.5157e+01|  4.5157e+01|   -9.696675|  3.5364e-06|    0.033244|
|        5510|  4.5157e+01|  4.5157e+01|   -9.700655|  3.5034e-06|    0.033241|
|        5520|  4.5157e+01|  4.5157e+01|   -9.704620|  3.4709e-06|    0.033238|
|        5530|  4.5157e+01|  4.5157e+01|   -9.708557|  3.4387e-06|    0.033235|
|        5540|  4.5157e+01|  4.5157e+01|   -9.712506|  3.4069e-06|    0.033232|
|        5550|  4.5157e+01|  4.5157e+01|   -9.716447|  3.3755e-06|    0.033229|
|        5560|  4.5157e+01|  4.5157e+01|   -9.720383|  3.3446e-06|    0.033226|
|        5570|  4.5157e+01|  4.5157e+01|   -9.724318|  3.3140e-06|    0.033223|
|        5580|  4.5157e+01|  4.5157e+01|   -9.728250|  3.2839e-06|    0.033220|
|        5590|  4.5157e+01|  4.5157e+01|   -9.732183|  3.2541e-06|    0.033217|
|        5600|  4.5157e+01|  4.5157e+01|   -9.736118|  3.2246e-06|    0.033214|
+-----------------------------------------------------------------------+
|        File Writing Summary       |              Filename             |
+-----------------------------------------------------------------------+
|SU2 binary restart                 |restart_flow_G4.dat                |
|Paraview                           |flow_G4.vtu                        |
|Paraview surface                   |surface_flow_G4.vtu                |
+-----------------------------------------------------------------------+
+-----------------------------------------------------------------------------+
|  Inner_Iter|     Min CFL|     Max CFL|      rms[P]|  Cauchy[CD]|          CD|
+-----------------------------------------------------------------------------+
|        5610|  4.5157e+01|  4.5157e+01|   -9.740059|  3.1954e-06|    0.033211|
|        5620|  4.5157e+01|  4.5157e+01|   -9.744007|  3.1663e-06|    0.033208|
|        5630|  4.5157e+01|  4.5157e+01|   -9.747963|  3.1374e-06|    0.033206|
|        5640|  4.5157e+01|  4.5157e+01|   -9.751934|  3.1087e-06|    0.033203|
|        5650|  4.5157e+01|  4.5157e+01|   -9.755903|  3.0801e-06|    0.033200|
|        5660|  4.5157e+01|  4.5157e+01|   -9.759879|  3.0517e-06|    0.033197|
|        5670|  4.5157e+01|  4.5157e+01|   -9.763862|  3.0235e-06|    0.033195|
|        5680|  4.5157e+01|  4.5157e+01|   -9.767851|  2.9955e-06|    0.033192|
|        5690|  4.5157e+01|  4.5157e+01|   -9.771838|  2.9678e-06|    0.033189|
|        5700|  4.5157e+01|  4.5157e+01|   -9.775824|  2.9404e-06|    0.033187|
|        5710|  4.5157e+01|  4.5157e+01|   -9.779809|  2.9132e-06|    0.033184|
|        5720|  4.5157e+01|  4.5157e+01|   -9.783789|  2.8865e-06|    0.033182|
|        5730|  4.5157e+01|  4.5157e+01|   -9.787764|  2.8600e-06|    0.033179|
|        5740|  4.5157e+01|  4.5157e+01|   -9.791736|  2.8339e-06|    0.033176|
|        5750|  4.5157e+01|  4.5157e+01|   -9.795707|  2.8081e-06|    0.033174|
|        5760|  4.5157e+01|  4.5157e+01|   -9.799679|  2.7826e-06|    0.033171|
|        5770|  4.5157e+01|  4.5157e+01|   -9.803646|  2.7573e-06|    0.033169|
|        5780|  4.5157e+01|  4.5157e+01|   -9.807615|  2.7322e-06|    0.033167|
|        5790|  4.5157e+01|  4.5157e+01|   -9.811587|  2.7074e-06|    0.033164|
|        5800|  4.5157e+01|  4.5157e+01|   -9.815555|  2.6827e-06|    0.033162|
+-----------------------------------------------------------------------+
|        File Writing Summary       |              Filename             |
+-----------------------------------------------------------------------+
|SU2 binary restart                 |restart_flow_G4.dat                |
|Paraview                           |flow_G4.vtu                        |
|Paraview surface                   |surface_flow_G4.vtu                |
+-----------------------------------------------------------------------+
+-----------------------------------------------------------------------------+
|  Inner_Iter|     Min CFL|     Max CFL|      rms[P]|  Cauchy[CD]|          CD|
+-----------------------------------------------------------------------------+
|        5810|  4.5157e+01|  4.5157e+01|   -9.819530|  2.6582e-06|    0.033159|
|        5820|  4.5157e+01|  4.5157e+01|   -9.823509|  2.6338e-06|    0.033157|
|        5830|  4.5157e+01|  4.5157e+01|   -9.827487|  2.6095e-06|    0.033155|
|        5840|  4.5157e+01|  4.5157e+01|   -9.831467|  2.5854e-06|    0.033152|
|        5850|  4.5157e+01|  4.5157e+01|   -9.835447|  2.5615e-06|    0.033150|
|        5860|  4.5157e+01|  4.5157e+01|   -9.839430|  2.5378e-06|    0.033148|
|        5870|  4.5157e+01|  4.5157e+01|   -9.843416|  2.5144e-06|    0.033146|
|        5880|  4.5157e+01|  4.5157e+01|   -9.847405|  2.4912e-06|    0.033143|
|        5890|  4.5157e+01|  4.5157e+01|   -9.851395|  2.4683e-06|    0.033141|
|        5900|  4.5157e+01|  4.5157e+01|   -9.855388|  2.4456e-06|    0.033139|
|        5910|  4.5157e+01|  4.5157e+01|   -9.859382|  2.4232e-06|    0.033137|
|        5920|  4.5157e+01|  4.5157e+01|   -9.863380|  2.4010e-06|    0.033135|
|        5930|  4.5157e+01|  4.5157e+01|   -9.867381|  2.3791e-06|    0.033133|
|        5940|  4.5157e+01|  4.5157e+01|   -9.871385|  2.3574e-06|    0.033130|
|        5950|  4.5157e+01|  4.5157e+01|   -9.875394|  2.3359e-06|    0.033128|
|        5960|  4.5157e+01|  4.5157e+01|   -9.879403|  2.3146e-06|    0.033126|
|        5970|  4.5157e+01|  4.5157e+01|   -9.883412|  2.2935e-06|    0.033124|
|        5980|  4.5157e+01|  4.5157e+01|   -9.887423|  2.2724e-06|    0.033122|
|        5990|  4.5157e+01|  4.5157e+01|   -9.891434|  2.2516e-06|    0.033120|
|        6000|  4.5157e+01|  4.5157e+01|   -9.895444|  2.2309e-06|    0.033118|
+-----------------------------------------------------------------------+
|        File Writing Summary       |              Filename             |
+-----------------------------------------------------------------------+
|SU2 binary restart                 |restart_flow_G4.dat                |
|Paraview                           |flow_G4.vtu                        |
|Paraview surface                   |surface_flow_G4.vtu                |
+-----------------------------------------------------------------------+
+-----------------------------------------------------------------------------+
|  Inner_Iter|     Min CFL|     Max CFL|      rms[P]|  Cauchy[CD]|          CD|
+-----------------------------------------------------------------------------+
|        6010|  4.5157e+01|  4.5157e+01|   -9.899450|  2.2103e-06|    0.033116|
|        6020|  4.5157e+01|  4.5157e+01|   -9.903455|  2.1899e-06|    0.033114|
|        6030|  4.5157e+01|  4.5157e+01|   -9.907448|  2.1697e-06|    0.033112|
|        6040|  4.5157e+01|  4.5157e+01|   -9.911446|  2.1496e-06|    0.033110|
|        6050|  4.5157e+01|  4.5157e+01|   -9.915442|  2.1298e-06|    0.033108|
|        6060|  4.5157e+01|  4.5157e+01|   -9.919433|  2.1101e-06|    0.033107|
|        6070|  4.5157e+01|  4.5157e+01|   -9.923420|  2.0907e-06|    0.033105|
|        6080|  4.5157e+01|  4.5157e+01|   -9.927406|  2.0715e-06|    0.033103|
|        6090|  4.5157e+01|  4.5157e+01|   -9.931389|  2.0525e-06|    0.033101|
|        6100|  4.5157e+01|  4.5157e+01|   -9.935371|  2.0337e-06|    0.033099|
|        6110|  4.5157e+01|  4.5157e+01|   -9.939355|  2.0151e-06|    0.033097|
|        6120|  4.5157e+01|  4.5157e+01|   -9.943339|  1.9967e-06|    0.033096|
|        6130|  4.5157e+01|  4.5157e+01|   -9.947326|  1.9784e-06|    0.033094|
|        6140|  4.5157e+01|  4.5157e+01|   -9.951317|  1.9603e-06|    0.033092|
|        6150|  4.5157e+01|  4.5157e+01|   -9.955310|  1.9423e-06|    0.033090|
|        6160|  4.5157e+01|  4.5157e+01|   -9.959306|  1.9245e-06|    0.033089|
|        6170|  4.5157e+01|  4.5157e+01|   -9.963305|  1.9068e-06|    0.033087|
|        6180|  4.5157e+01|  4.5157e+01|   -9.967304|  1.8892e-06|    0.033085|
|        6190|  4.5157e+01|  4.5157e+01|   -9.971305|  1.8717e-06|    0.033084|
|        6200|  4.5157e+01|  4.5157e+01|   -9.975307|  1.8544e-06|    0.033082|
+-----------------------------------------------------------------------+
|        File Writing Summary       |              Filename             |
+-----------------------------------------------------------------------+
|SU2 binary restart                 |restart_flow_G4.dat                |
|Paraview                           |flow_G4.vtu                        |
|Paraview surface                   |surface_flow_G4.vtu                |
+-----------------------------------------------------------------------+
+-----------------------------------------------------------------------------+
|  Inner_Iter|     Min CFL|     Max CFL|      rms[P]|  Cauchy[CD]|          CD|
+-----------------------------------------------------------------------------+
|        6210|  4.5157e+01|  4.5157e+01|   -9.979310|  1.8372e-06|    0.033080|
|        6220|  4.5157e+01|  4.5157e+01|   -9.983315|  1.8203e-06|    0.033079|
|        6230|  4.5157e+01|  4.5157e+01|   -9.987316|  1.8034e-06|    0.033077|
|        6240|  4.5157e+01|  4.5157e+01|   -9.991315|  1.7868e-06|    0.033075|
|        6250|  4.5157e+01|  4.5157e+01|   -9.995312|  1.7703e-06|    0.033074|
|        6260|  4.5157e+01|  4.5157e+01|   -9.999309|  1.7541e-06|    0.033072|
|        6270|  4.5157e+01|  4.5157e+01|  -10.003306|  1.7379e-06|    0.033071|
|        6280|  4.5157e+01|  4.5157e+01|  -10.007301|  1.7220e-06|    0.033069|
|        6290|  4.5157e+01|  4.5157e+01|  -10.011296|  1.7062e-06|    0.033068|
|        6300|  4.5157e+01|  4.5157e+01|  -10.015294|  1.6906e-06|    0.033066|
|        6310|  4.5157e+01|  4.5157e+01|  -10.019289|  1.6750e-06|    0.033065|
|        6320|  4.5157e+01|  4.5157e+01|  -10.023283|  1.6596e-06|    0.033063|
|        6330|  4.5157e+01|  4.5157e+01|  -10.027282|  1.6444e-06|    0.033062|
|        6340|  4.5157e+01|  4.5157e+01|  -10.031285|  1.6292e-06|    0.033060|
|        6350|  4.5157e+01|  4.5157e+01|  -10.035287|  1.6142e-06|    0.033059|
|        6360|  4.5157e+01|  4.5157e+01|  -10.039292|  1.5993e-06|    0.033057|
|        6370|  4.5157e+01|  4.5157e+01|  -10.043299|  1.5845e-06|    0.033056|
|        6380|  4.5157e+01|  4.5157e+01|  -10.047308|  1.5698e-06|    0.033055|
|        6390|  4.5157e+01|  4.5157e+01|  -10.051319|  1.5553e-06|    0.033053|
|        6400|  4.5157e+01|  4.5157e+01|  -10.055333|  1.5410e-06|    0.033052|
+-----------------------------------------------------------------------+
|        File Writing Summary       |              Filename             |
+-----------------------------------------------------------------------+
|SU2 binary restart                 |restart_flow_G4.dat                |
|Paraview                           |flow_G4.vtu                        |
|Paraview surface                   |surface_flow_G4.vtu                |
+-----------------------------------------------------------------------+
+-----------------------------------------------------------------------------+
|  Inner_Iter|     Min CFL|     Max CFL|      rms[P]|  Cauchy[CD]|          CD|
+-----------------------------------------------------------------------------+
|        6410|  4.5157e+01|  4.5157e+01|  -10.059346|  1.5267e-06|    0.033051|
|        6420|  4.5157e+01|  4.5157e+01|  -10.063360|  1.5126e-06|    0.033049|
|        6430|  4.5157e+01|  4.5157e+01|  -10.067373|  1.4987e-06|    0.033048|
|        6440|  4.5157e+01|  4.5157e+01|  -10.071386|  1.4849e-06|    0.033046|
|        6450|  4.5157e+01|  4.5157e+01|  -10.075401|  1.4713e-06|    0.033045|
|        6460|  4.5157e+01|  4.5157e+01|  -10.079417|  1.4577e-06|    0.033044|
|        6470|  4.5157e+01|  4.5157e+01|  -10.083434|  1.4444e-06|    0.033043|
|        6480|  4.5157e+01|  4.5157e+01|  -10.087450|  1.4311e-06|    0.033041|
|        6490|  4.5157e+01|  4.5157e+01|  -10.091457|  1.4179e-06|    0.033040|
|        6500|  4.5157e+01|  4.5157e+01|  -10.095472|  1.4049e-06|    0.033039|
|        6510|  4.5157e+01|  4.5157e+01|  -10.099487|  1.3919e-06|    0.033038|
|        6520|  4.5157e+01|  4.5157e+01|  -10.103501|  1.3791e-06|    0.033036|
|        6530|  4.5157e+01|  4.5157e+01|  -10.107513|  1.3663e-06|    0.033035|
|        6540|  4.5157e+01|  4.5157e+01|  -10.111523|  1.3537e-06|    0.033034|
|        6550|  4.5157e+01|  4.5157e+01|  -10.115533|  1.3412e-06|    0.033033|
|        6560|  4.5157e+01|  4.5157e+01|  -10.119542|  1.3288e-06|    0.033032|
|        6570|  4.5157e+01|  4.5157e+01|  -10.123549|  1.3165e-06|    0.033030|
|        6580|  4.5157e+01|  4.5157e+01|  -10.127554|  1.3043e-06|    0.033029|
|        6590|  4.5157e+01|  4.5157e+01|  -10.131558|  1.2923e-06|    0.033028|
|        6600|  4.5157e+01|  4.5157e+01|  -10.135561|  1.2804e-06|    0.033027|
+-----------------------------------------------------------------------+
|        File Writing Summary       |              Filename             |
+-----------------------------------------------------------------------+
|SU2 binary restart                 |restart_flow_G4.dat                |
|Paraview                           |flow_G4.vtu                        |
|Paraview surface                   |surface_flow_G4.vtu                |
+-----------------------------------------------------------------------+
+-----------------------------------------------------------------------------+
|  Inner_Iter|     Min CFL|     Max CFL|      rms[P]|  Cauchy[CD]|          CD|
+-----------------------------------------------------------------------------+
|        6610|  4.5157e+01|  4.5157e+01|  -10.139565|  1.2686e-06|    0.033026|
|        6620|  4.5157e+01|  4.5157e+01|  -10.143569|  1.2569e-06|    0.033025|
|        6630|  4.5157e+01|  4.5157e+01|  -10.147574|  1.2453e-06|    0.033024|
|        6640|  4.5157e+01|  4.5157e+01|  -10.151583|  1.2339e-06|    0.033022|
|        6650|  4.5157e+01|  4.5157e+01|  -10.155594|  1.2225e-06|    0.033021|
|        6660|  4.5157e+01|  4.5157e+01|  -10.159601|  1.2113e-06|    0.033020|
|        6670|  4.5157e+01|  4.5157e+01|  -10.163609|  1.2001e-06|    0.033019|
|        6680|  4.5157e+01|  4.5157e+01|  -10.167619|  1.1890e-06|    0.033018|
|        6690|  4.5157e+01|  4.5157e+01|  -10.171634|  1.1781e-06|    0.033017|
|        6700|  4.5157e+01|  4.5157e+01|  -10.175639|  1.1672e-06|    0.033016|
|        6710|  4.5157e+01|  4.5157e+01|  -10.179656|  1.1564e-06|    0.033015|
|        6720|  4.5157e+01|  4.5157e+01|  -10.183675|  1.1457e-06|    0.033014|
|        6730|  4.5157e+01|  4.5157e+01|  -10.187692|  1.1351e-06|    0.033013|
|        6740|  4.5157e+01|  4.5157e+01|  -10.191710|  1.1247e-06|    0.033012|
|        6750|  4.5157e+01|  4.5157e+01|  -10.195724|  1.1143e-06|    0.033011|
|        6760|  4.5157e+01|  4.5157e+01|  -10.199738|  1.1040e-06|    0.033010|
|        6770|  4.5157e+01|  4.5157e+01|  -10.203752|  1.0938e-06|    0.033009|
|        6780|  4.5157e+01|  4.5157e+01|  -10.207765|  1.0837e-06|    0.033008|
|        6790|  4.5157e+01|  4.5157e+01|  -10.211778|  1.0738e-06|    0.033007|
|        6800|  4.5157e+01|  4.5157e+01|  -10.215790|  1.0639e-06|    0.033006|
+-----------------------------------------------------------------------+
|        File Writing Summary       |              Filename             |
+-----------------------------------------------------------------------+
|SU2 binary restart                 |restart_flow_G4.dat                |
|Paraview                           |flow_G4.vtu                        |
|Paraview surface                   |surface_flow_G4.vtu                |
+-----------------------------------------------------------------------+
+-----------------------------------------------------------------------------+
|  Inner_Iter|     Min CFL|     Max CFL|      rms[P]|  Cauchy[CD]|          CD|
+-----------------------------------------------------------------------------+
|        6810|  4.5157e+01|  4.5157e+01|  -10.219801|  1.0541e-06|    0.033005|
|        6820|  4.5157e+01|  4.5157e+01|  -10.223813|  1.0444e-06|    0.033004|
|        6830|  4.5157e+01|  4.5157e+01|  -10.227826|  1.0348e-06|    0.033003|
|        6840|  4.5157e+01|  4.5157e+01|  -10.231840|  1.0252e-06|    0.033002|
|        6850|  4.5157e+01|  4.5157e+01|  -10.235856|  1.0158e-06|    0.033001|
|        6860|  4.5157e+01|  4.5157e+01|  -10.239873|  1.0064e-06|    0.033001|
|        6867|  4.5157e+01|  4.5157e+01|  -10.242691|  9.9991e-07|    0.033000|

----------------------------- Solver Exit -------------------------------
All convergence criteria satisfied.
+-----------------------------------------------------------------------+
|      Convergence Field     |     Value    |   Criterion  |  Converged |
+-----------------------------------------------------------------------+
|                      rms[P]|      -10.2427|          < -9|         Yes|
|                  Cauchy[CD]|   9.99906e-07|       < 1e-06|         Yes|
+-----------------------------------------------------------------------+
-------------------------------------------------------------------------
+-----------------------------------------------------------------------+
|        File Writing Summary       |              Filename             |
+-----------------------------------------------------------------------+
|SU2 binary restart                 |restart_flow_G4.dat                |
|Paraview                           |flow_G4.vtu                        |
|Paraview surface                   |surface_flow_G4.vtu                |
+-----------------------------------------------------------------------+

------------------------- Solver Postprocessing -------------------------
Deleted CNumerics container.
Deleted CIntegration container.
Deleted CSolver container.
Deleted CIteration container.
Deleted CInterface container.
Deleted CGeometry container.
Deleted CFreeFormDefBox class.
Deleted CSurfaceMovement class.
Deleted CVolumetricMovement class.
Deleted CConfig container.
Deleted nInst container.
Deleted COutput class.
-------------------------------------------------------------------------

------------------------- Exit Success (SU2_CFD) ------------------------

