
-------------------------------------------------------------------------
|    ___ _   _ ___                                                      |
|   / __| | | |_  )   Release 7.4.0 "Blackbird"                         |
|   \__ \ |_| |/ /                                                      |
|   |___/\___//___|   Suite (Computational Fluid Dynamics Code)         |
|                                                                       |
-------------------------------------------------------------------------
| SU2 Project Website: https://su2code.github.io                        |
|                                                                       |
| The SU2 Project is maintained by the SU2 Foundation                   |
| (http://su2foundation.org)                                            |
-------------------------------------------------------------------------
| Copyright 2012-2022, SU2 Contributors                                 |
|                                                                       |
| SU2 is free software; you can redistribute it and/or                  |
| modify it under the terms of the GNU Lesser General Public            |
| License as published by the Free Software Foundation; either          |
| version 2.1 of the License, or (at your option) any later version.    |
|                                                                       |
| SU2 is distributed in the hope that it will be useful,                |
| but WITHOUT ANY WARRANTY; without even the implied warranty of        |
| MERCHANTABILITY or FITNESS FOR A PARTICULAR PURPOSE. See the GNU      |
| Lesser General Public License for more details.                       |
|                                                                       |
| You should have received a copy of the GNU Lesser General Public      |
| License along with SU2. If not, see <http://www.gnu.org/licenses/>.   |
-------------------------------------------------------------------------

Parsing config file for zone 0

----------------- Physical Case Definition ( Zone 0 ) -------------------
Incompressible RANS equations.
Turbulence model: Spalart-Allmaras-noft2
Hybrid RANS/LES: No Hybrid RANS/LES
Reading and writing binary SU2 native restart files.
Read flow solution from: ../../O1/case_A15/restart_flow_aoa15.dat.
Non-Dimensional simulation using intialization values.
The reference area is 1 m^2.
The semi-span will be computed using the max y(3D) value.
The reference length is 1.00898 m.
Reference origin for moment evaluation is (-0.756, 0, 0).
Surface(s) where the force coefficients are evaluated: AIRFOIL.

Surface(s) plotted in the output file: AIRFOIL.
Input mesh file name: ../meshG5/meshG5.su2

--------------- Space Numerical Integration ( Zone 0 ) ------------------
Flux difference splitting (FDS) upwind scheme for the flow inviscid terms.
Second order integration in space, with slope limiter.
Venkatakrishnan slope-limiting method, with constant: 0.056.
The reference element size is: 1. 
Average of gradients with correction (viscous flow terms).
Average of gradients with correction (viscous turbulence terms).
Gradient for upwind reconstruction: unweighted Least-Squares.
Gradient for viscous and source terms: Green-Gauss.

--------------- Time Numerical Integration  ( Zone 0 ) ------------------
Local time stepping (steady state simulation).
Euler implicit method for the flow equations.
FGMRES is used for solving the linear system.
Using a ILU(0) preconditioning.
Convergence criteria of the linear solver: 1e-06.
Max number of linear iterations: 10.
CFL adaptation. Factor down: 0.1, factor up: 1.2,
                lower limit: 1, upper limit: 1000,
                acceptable linear residual: 0.001.
Courant-Friedrichs-Lewy number:        2
Euler implicit time integration for the turbulence model.

------------------ Convergence Criteria  ( Zone 0 ) ---------------------
Maximum number of solver subiterations: 9999.
Begin convergence monitoring at iteration 10.
Residual minimum value: 1e-9.
Cauchy series min. value: 1e-06.
Number of Cauchy elements: 250.
Begin windowed time average at iteration 0.

-------------------- Output Information ( Zone 0 ) ----------------------
File writing frequency: 
+------------------------------------+
|                     File| Frequency|
+------------------------------------+
|                  RESTART|       200|
|                 PARAVIEW|       200|
|         SURFACE_PARAVIEW|       200|
+------------------------------------+
Writing the convergence history file every 1 inner iterations.
Writing the screen convergence history every 10 inner iterations.
The tabular file format is CSV (.csv).
Convergence history file name: history_aoa15.
Forces breakdown file name: forces_breakdown.dat.
Surface file name: surface_flow_aoa15.
Volume file name: flow_aoa15.
Restart file name: restart_flow_aoa15.dat.

------------- Config File Boundary Information ( Zone 0 ) ---------------
+-----------------------------------------------------------------------+
|                        Marker Type|                        Marker Name|
+-----------------------------------------------------------------------+
|                          Far-field|                           FARFIELD|
+-----------------------------------------------------------------------+
|                     Heat flux wall|                            AIRFOIL|
+-----------------------------------------------------------------------+

-------------------- Output Preprocessing ( Zone 0 ) --------------------

WARNING: SURFACE_PRESSURE_DROP can only be computed for at least 2 surfaces (outlet, inlet, ...)

Screen output fields: INNER_ITER, MIN_CFL, MAX_CFL, RMS_PRESSURE, CAUCHY_DRAG, DRAG
History output group(s): INNER_ITER, MIN_CFL, MAX_CFL, RMS_RES, LIFT, DRAG, MOMENT_Z, CAUCHY
Convergence field(s): RMS_PRESSURE, DRAG
Warning: No (valid) fields chosen for time convergence monitoring. Time convergence monitoring inactive.
Volume output fields: COORDINATES, SOLUTION, PRIMITIVE, RESIDUAL, MESH_QUALITY

------------------- Geometry Preprocessing ( Zone 0 ) -------------------
Two dimensional problem.
361479 grid points before partitioning.
360180 volume elements before partitioning.
2 surface markers.
724 boundary elements in index 0 (Marker = AIRFOIL).
1874 boundary elements in index 1 (Marker = FARFIELD).
Executing the partitioning functions.
Building the graph adjacency structure.
Calling ParMETIS... graph partitioning complete (4050 edge cuts).
Distributing ParMETIS coloring.
Rebalancing vertices.
Rebalancing volume element connectivity.
Rebalancing markers and surface elements.
369602 vertices including ghost points. 
364230 interior elements including halo cells. 
364230 quadrilaterals.
Establishing MPI communication patterns.
Setting point connectivity.
Renumbering points (Reverse Cuthill McKee Ordering).
Recomputing point connectivity.
Setting element connectivity.
Checking the numerical grid orientation.
All volume elements are correctly orientend.
There has been a re-orientation of 1305 LINE surface elements.
Identifying edges and vertices.
Setting the control volume structure.
Area of the computational grid: 103207.
Searching for the closest normal neighbors to the surfaces.
Storing a mapping from global to local point index.
Compute the surface curvature.
Max K: 227502. Mean K: 205.598. Standard deviation K: 4719.73.
Checking for periodicity.
Computing mesh quality statistics for the dual control volumes.
+--------------------------------------------------------------+
|           Mesh Quality Metric|        Minimum|        Maximum|
+--------------------------------------------------------------+
|    Orthogonality Angle (deg.)|        75.9136|             90|
|     CV Face Area Aspect Ratio|        1.00002|    3.17894e+06|
|           CV Sub-Volume Ratio|              1|         387.07|
+--------------------------------------------------------------+
Finding max control volume width.
Communicating number of neighbors.
Wetted area = 2.0597 m.
Area projection in the x-plane = 0.121116 m, y-plane = 1.00881 m.
Max. coordinate in the x-direction = 1.00898 m, y-direction = 0.0759837 m.
Min. coordinate in the x-direction = 4.86614e-06 m, y-direction = -0.0451345 m.
Computing wall distances.

-------------------- Solver Preprocessing ( Zone 0 ) --------------------
 Warning: There is no restart file (flow.meta).
 Computation will continue without updating metadata parameters.
Incompressible flow: rho_ref, vel_ref, and temp_ref
are based on the initial values, p_ref = rho_ref*vel_ref^2.
Force coefficients computed using initial values.
The reference area for force coeffs. is 1 m^2.
The reference length for force coeffs. is 1.00898 m.
The pressure is decomposed into thermodynamic and dynamic components.
The initial value of the dynamic pressure is 0.
Mach number: 0.0276747, computed using the Bulk modulus.
For external flows, the initial state is imposed at the far-field.
Angle of attack (deg): 15.0003, computed using the initial velocity.
Side slip angle (deg): 0, computed using the initial velocity.
Reynolds number per meter: 595000, computed using initial values.
Reynolds number is a byproduct of inputs only (not used internally).
SI units only. The grid should be dimensional (meters).
No energy equation.

-- Models:
+------------------------------------------------------------------------------+
|          Viscosity Model|        Conductivity Model|              Fluid Model|
+------------------------------------------------------------------------------+
|       CONSTANT_VISCOSITY|          CONSTANT_PRANDTL|         CONSTANT_DENSITY|
+------------------------------------------------------------------------------+
-- Fluid properties:
+------------------------------------------------------------------------------+
|                  Name|    Dim. value|    Ref. value|      Unit|Non-dim. value|
+------------------------------------------------------------------------------+
|             Viscosity|      1.92e-05|        11.424|   N.s/m^2|   1.68067e-06|
+------------------------------------------------------------------------------+
|        Prandtl (Lam.)|             -|             -|         -|          0.72|
|       Prandtl (Turb.)|             -|             -|         -|           0.9|
+------------------------------------------------------------------------------+
|          Bulk Modulus|        142000|             1|        Pa|        142000|
+------------------------------------------------------------------------------+
-- Initial and free-stream conditions:
+------------------------------------------------------------------------------+
|                  Name|    Dim. value|    Ref. value|      Unit|Non-dim. value|
+------------------------------------------------------------------------------+
|      Dynamic Pressure|             0|       108.756|        Pa|             0|
|        Total Pressure|       54.3782|       108.756|        Pa|           0.5|
|               Density|           1.2|           1.2|    kg/m^3|             1|
|            Velocity-X|        9.1956|          9.52|       m/s|      0.965925|
|            Velocity-Y|         2.464|          9.52|       m/s|      0.258824|
|    Velocity Magnitude|          9.52|          9.52|       m/s|             1|
+------------------------------------------------------------------------------+
|             Viscosity|      1.92e-05|        11.424|   N.s/m^2|   1.68067e-06|
|          Conductivity|             -|       3.59313|   W/m^2.K|             -|
|     Turb. Kin. Energy|       1.35946|       90.6304|   m^2/s^2|         0.015|
|     Spec. Dissipation|        8496.6|          9.52|       1/s|         892.5|
+------------------------------------------------------------------------------+
|           Mach Number|             -|             -|         -|     0.0276747|
|       Reynolds Number|             -|             -|         -|        595000|
+------------------------------------------------------------------------------+
Initialize Jacobian structure (Navier-Stokes). MG level: 0.
Initialize Jacobian structure (SA model).

------------------- Numerics Preprocessing ( Zone 0 ) -------------------

----------------- Integration Preprocessing ( Zone 0 ) ------------------

------------------- Iteration Preprocessing ( Zone 0 ) ------------------
Euler/Navier-Stokes/RANS fluid iteration.

------------------------------ Begin Solver -----------------------------

Simulation Run using the Single-zone Driver
+-----------------------------------------------------------------------------+
|  Inner_Iter|     Min CFL|     Max CFL|      rms[P]|  Cauchy[CD]|          CD|
+-----------------------------------------------------------------------------+
|           0|  2.4000e+00|  2.4000e+00|   -6.383934|  1.0000e+00|    0.130492|
|          10|  1.4860e+01|  1.4860e+01|   -6.332269|  7.5338e-05|    0.128060|
|          20|  5.3247e+01|  5.3247e+01|   -6.744858|  1.5271e-03|    0.088937|
|          30|  2.2895e+01|  2.2895e+01|   -6.819641|  1.8107e-03|    0.081847|
|          40|  1.1813e+01|  1.1813e+01|   -6.678356|  1.9234e-03|    0.084598|
|          50|  7.3145e+01|  7.3145e+01|   -6.720504|  2.0113e-03|    0.086796|
|          60|  3.7741e+01|  3.7741e+01|   -6.809933|  2.0320e-03|    0.087312|
|          70|  1.9474e+01|  1.9474e+01|   -6.918742|  2.0796e-03|    0.086122|
|          80|  1.0048e+01|  1.0048e+01|   -6.752347|  2.1507e-03|    0.084344|
|          90|  6.2215e+01|  6.2215e+01|   -6.874787|  2.1853e-03|    0.085191|
|         100|  3.2101e+01|  3.2101e+01|   -6.988577|  2.2683e-03|    0.087266|
|         110|  6.6565e+00|  6.6565e+00|   -6.972305|  2.3688e-03|    0.089761|
|         120|  4.1216e+01|  4.1216e+01|   -7.047044|  2.3813e-03|    0.089448|
|         130|  1.4768e+01|  1.4768e+01|   -7.087703|  2.4324e-03|    0.088170|
|         140|  7.6201e+00|  7.6201e+00|   -7.059136|  2.4756e-03|    0.087091|
|         150|  4.7182e+01|  4.7182e+01|   -7.071262|  2.4974e-03|    0.086544|
|         160|  4.7182e+01|  4.7182e+01|   -7.119757|  2.5154e-03|    0.086675|
|         170|  9.7836e+00|  9.7836e+00|   -7.123092|  2.5460e-03|    0.087441|
|         180|  5.0481e+00|  5.0481e+00|   -7.104621|  2.5736e-03|    0.088129|
|         190|  3.1257e+01|  3.1257e+01|   -7.097819|  2.5849e-03|    0.088413|
|         200|  5.4011e+00|  5.4011e+00|   -7.089867|  2.5990e-03|    0.088476|
+-----------------------------------------------------------------------+
|        File Writing Summary       |              Filename             |
+-----------------------------------------------------------------------+
|SU2 binary restart                 |restart_flow_aoa15.dat             |
|Paraview                           |flow_aoa15.vtu                     |
|Paraview surface                   |surface_flow_aoa15.vtu             |
+-----------------------------------------------------------------------+
+-----------------------------------------------------------------------------+
|  Inner_Iter|     Min CFL|     Max CFL|      rms[P]|  Cauchy[CD]|          CD|
+-----------------------------------------------------------------------------+
|         210|  3.3442e+01|  3.3442e+01|   -7.108841|  2.6090e-03|    0.088227|
|         220|  4.8157e+01|  4.8157e+01|   -7.193059|  2.6490e-03|    0.087227|
|         230|  4.8157e+01|  4.8157e+01|   -7.175062|  2.6693e-03|    0.087439|
|         240|  4.8157e+01|  4.8157e+01|   -7.175234|  2.7300e-03|    0.088959|
|         250|  4.8157e+01|  4.8157e+01|   -7.190047|  2.7577e-03|    0.089618|
|         260|  4.8157e+01|  4.8157e+01|   -7.234035|  2.7208e-03|    0.088658|
|         270|  4.8157e+01|  4.8157e+01|   -7.208340|  1.3204e-03|    0.087374|
|         280|  4.8157e+01|  4.8157e+01|   -7.214594|  1.0670e-03|    0.086619|
|         290|  4.8157e+01|  4.8157e+01|   -7.300390|  9.7853e-04|    0.086013|
|         300|  4.8157e+01|  4.8157e+01|   -7.319766|  9.1433e-04|    0.085420|
|         310|  4.8157e+01|  4.8157e+01|   -7.276978|  9.0555e-04|    0.085123|
|         320|  1.7256e+01|  1.7256e+01|   -7.272659|  8.6196e-04|    0.085023|
|         330|  8.9035e+00|  8.9035e+00|   -7.269316|  7.9892e-04|    0.084821|
|         340|  4.5940e+01|  4.5940e+01|   -7.300202|  7.7710e-04|    0.084502|
|         350|  4.5940e+01|  4.5940e+01|   -7.379163|  7.3460e-04|    0.083490|
|         360|  9.5261e+00|  9.5261e+00|   -7.361527|  6.6495e-04|    0.082718|
|         370|  4.9153e+00|  4.9153e+00|   -7.324908|  6.7593e-04|    0.082130|
|         380|  3.0434e+01|  3.0434e+01|   -7.308522|  6.3522e-04|    0.081870|
|         390|  4.3825e+01|  4.3825e+01|   -7.327394|  6.1692e-04|    0.081249|
|         400|  6.3108e+00|  6.3108e+00|   -7.417142|  6.1217e-04|    0.080821|
+-----------------------------------------------------------------------+
|        File Writing Summary       |              Filename             |
+-----------------------------------------------------------------------+
|SU2 binary restart                 |restart_flow_aoa15.dat             |
|Paraview                           |flow_aoa15.vtu                     |
|Paraview surface                   |surface_flow_aoa15.vtu             |
+-----------------------------------------------------------------------+
+-----------------------------------------------------------------------------+
|  Inner_Iter|     Min CFL|     Max CFL|      rms[P]|  Cauchy[CD]|          CD|
+-----------------------------------------------------------------------------+
|         410|  3.9075e+01|  3.9075e+01|   -7.432322|  6.0166e-04|    0.080634|
|         420|  2.0162e+01|  2.0162e+01|   -7.425907|  5.8000e-04|    0.080410|
|         430|  1.0403e+01|  1.0403e+01|   -7.391457|  5.6750e-04|    0.080035|
|         440|  4.4731e+01|  4.4731e+01|   -7.369209|  5.7685e-04|    0.079517|
|         450|  9.2755e+00|  9.2755e+00|   -7.354353|  5.9169e-04|    0.078793|
|         460|  4.7859e+00|  4.7859e+00|   -7.387209|  6.0138e-04|    0.078302|
|         470|  2.9633e+01|  2.9633e+01|   -7.412437|  5.7071e-04|    0.078069|
|         480|  1.5290e+01|  1.5290e+01|   -7.448876|  5.6464e-04|    0.077714|
|         490|  4.5656e+01|  4.5656e+01|   -7.460866|  5.2288e-04|    0.077238|
|         500|  4.5656e+01|  4.5656e+01|   -7.425837|  5.1630e-04|    0.076710|
|         510|  5.4787e+01|  5.4787e+01|   -7.430697|  4.9759e-04|    0.076218|
|         520|  2.8269e+01|  2.8269e+01|   -7.469026|  4.5356e-04|    0.076035|
|         530|  1.4586e+01|  1.4586e+01|   -7.511888|  4.3251e-04|    0.075806|
|         540|  7.5261e+00|  7.5261e+00|   -7.497118|  4.1977e-04|    0.075519|
|         550|  4.6600e+01|  4.6600e+01|   -7.539595|  4.0506e-04|    0.075293|
|         560|  2.4045e+01|  2.4045e+01|   -7.519215|  4.0267e-04|    0.075056|
|         570|  4.9859e+01|  4.9859e+01|   -7.436550|  4.2137e-04|    0.074489|
|         580|  1.0339e+01|  1.0339e+01|   -7.389286|  4.3534e-04|    0.073937|
|         590|  5.3345e+01|  5.3345e+01|   -7.440898|  4.3827e-04|    0.073545|
|         600|  5.3345e+01|  5.3345e+01|   -7.432640|  4.2351e-04|    0.072902|
+-----------------------------------------------------------------------+
|        File Writing Summary       |              Filename             |
+-----------------------------------------------------------------------+
|SU2 binary restart                 |restart_flow_aoa15.dat             |
|Paraview                           |flow_aoa15.vtu                     |
|Paraview surface                   |surface_flow_aoa15.vtu             |
+-----------------------------------------------------------------------+
+-----------------------------------------------------------------------------+
|  Inner_Iter|     Min CFL|     Max CFL|      rms[P]|  Cauchy[CD]|          CD|
+-----------------------------------------------------------------------------+
|         610|  5.3345e+01|  5.3345e+01|   -7.445250|  4.1043e-04|    0.072457|
|         620|  5.3345e+01|  5.3345e+01|   -7.534086|  4.0147e-04|    0.072093|
|         630|  5.3345e+01|  5.3345e+01|   -7.538042|  4.0618e-04|    0.071716|
|         640|  5.3345e+01|  5.3345e+01|   -7.509177|  3.9673e-04|    0.071331|
|         650|  2.7525e+01|  2.7525e+01|   -7.585019|  3.8588e-04|    0.071174|
|         660|  1.4202e+01|  1.4202e+01|   -7.620094|  3.8569e-04|    0.070992|
|         670|  7.3281e+00|  7.3281e+00|   -7.523587|  3.8534e-04|    0.070777|
|         680|  4.5374e+01|  4.5374e+01|   -7.569443|  3.7543e-04|    0.070649|
|         690|  5.4448e+01|  5.4448e+01|   -7.506575|  3.6844e-04|    0.070306|
|         700|  5.4448e+01|  5.4448e+01|   -7.518673|  3.4974e-04|    0.070050|
|         710|  5.4448e+01|  5.4448e+01|   -7.526439|  3.3572e-04|    0.069909|
|         720|  5.4448e+01|  5.4448e+01|   -7.532161|  3.2900e-04|    0.069844|
|         730|  5.4448e+01|  5.4448e+01|   -7.563858|  3.1699e-04|    0.069789|
|         740|  5.4448e+01|  5.4448e+01|   -7.575487|  3.0072e-04|    0.069720|
|         750|  5.4448e+01|  5.4448e+01|   -7.561644|  2.8222e-04|    0.069655|
|         760|  5.4448e+01|  5.4448e+01|   -7.553472|  2.6357e-04|    0.069629|
|         770|  5.4448e+01|  5.4448e+01|   -7.543789|  2.5792e-04|    0.069671|
|         780|  5.4448e+01|  5.4448e+01|   -7.551162|  2.5294e-04|    0.069775|
|         790|  5.4448e+01|  5.4448e+01|   -7.571715|  2.4697e-04|    0.069913|
|         800|  5.4448e+01|  5.4448e+01|   -7.569197|  2.4370e-04|    0.070057|
+-----------------------------------------------------------------------+
|        File Writing Summary       |              Filename             |
+-----------------------------------------------------------------------+
|SU2 binary restart                 |restart_flow_aoa15.dat             |
|Paraview                           |flow_aoa15.vtu                     |
|Paraview surface                   |surface_flow_aoa15.vtu             |
+-----------------------------------------------------------------------+
+-----------------------------------------------------------------------------+
|  Inner_Iter|     Min CFL|     Max CFL|      rms[P]|  Cauchy[CD]|          CD|
+-----------------------------------------------------------------------------+
|         810|  5.4448e+01|  5.4448e+01|   -7.552010|  2.3978e-04|    0.070196|
|         820|  5.4448e+01|  5.4448e+01|   -7.537981|  2.2271e-04|    0.070337|
|         830|  5.4448e+01|  5.4448e+01|   -7.524111|  2.0685e-04|    0.070492|
|         840|  5.4448e+01|  5.4448e+01|   -7.514779|  1.9812e-04|    0.070666|
|         850|  5.4448e+01|  5.4448e+01|   -7.506869|  1.7994e-04|    0.070854|
|         860|  5.4448e+01|  5.4448e+01|   -7.495143|  1.6985e-04|    0.071047|
|         870|  5.4448e+01|  5.4448e+01|   -7.487066|  1.6278e-04|    0.071234|
|         880|  5.4448e+01|  5.4448e+01|   -7.482641|  1.5482e-04|    0.071413|
|         890|  5.4448e+01|  5.4448e+01|   -7.477316|  1.4631e-04|    0.071585|
|         900|  5.4448e+01|  5.4448e+01|   -7.469934|  1.4680e-04|    0.071754|
|         910|  5.4448e+01|  5.4448e+01|   -7.459779|  1.4620e-04|    0.071920|
|         920|  5.4448e+01|  5.4448e+01|   -7.452467|  1.4399e-04|    0.072080|
|         930|  5.4448e+01|  5.4448e+01|   -7.453654|  1.4484e-04|    0.072230|
|         940|  5.4448e+01|  5.4448e+01|   -7.461294|  1.3665e-04|    0.072368|
|         950|  1.3548e+01|  1.3548e+01|   -7.490951|  1.2989e-04|    0.072455|
|         960|  6.9907e+00|  6.9907e+00|   -7.480063|  1.2716e-04|    0.072528|
|         970|  4.3285e+01|  4.3285e+01|   -7.501964|  1.2611e-04|    0.072567|
|         980|  2.2334e+01|  2.2334e+01|   -7.513081|  1.2592e-04|    0.072617|
|         990|  5.5574e+01|  5.5574e+01|   -7.494471|  1.2692e-04|    0.072711|
|        1000|  5.5574e+01|  5.5574e+01|   -7.500245|  1.2855e-04|    0.072817|
+-----------------------------------------------------------------------+
|        File Writing Summary       |              Filename             |
+-----------------------------------------------------------------------+
|SU2 binary restart                 |restart_flow_aoa15.dat             |
|Paraview                           |flow_aoa15.vtu                     |
|Paraview surface                   |surface_flow_aoa15.vtu             |
+-----------------------------------------------------------------------+
+-----------------------------------------------------------------------------+
|  Inner_Iter|     Min CFL|     Max CFL|      rms[P]|  Cauchy[CD]|          CD|
+-----------------------------------------------------------------------------+
|        1010|  5.5574e+01|  5.5574e+01|   -7.513537|  1.3117e-04|    0.072908|
|        1020|  1.6594e+01|  1.6594e+01|   -7.549605|  1.3153e-04|    0.072959|
|        1030|  8.5623e+00|  8.5623e+00|   -7.525315|  1.2931e-04|    0.073007|
|        1040|  5.3016e+01|  5.3016e+01|   -7.562430|  1.2496e-04|    0.073037|
|        1050|  2.7355e+01|  2.7355e+01|   -7.578769|  1.2023e-04|    0.073063|
|        1060|  5.6723e+01|  5.6723e+01|   -7.573831|  1.1705e-04|    0.073122|
|        1070|  5.6723e+01|  5.6723e+01|   -7.587405|  1.1385e-04|    0.073183|
|        1080|  2.9268e+01|  2.9268e+01|   -7.613128|  1.0848e-04|    0.073204|
|        1090|  1.5102e+01|  1.5102e+01|   -7.618420|  1.0269e-04|    0.073233|
|        1100|  7.7921e+00|  7.7921e+00|   -7.612102|  9.6153e-05|    0.073258|
|        1110|  4.8246e+01|  4.8246e+01|   -7.628802|  8.9023e-05|    0.073272|
|        1120|  5.7896e+01|  5.7896e+01|   -7.625030|  8.2782e-05|    0.073304|
|        1130|  1.4406e+01|  1.4406e+01|   -7.638095|  7.6211e-05|    0.073318|
|        1140|  7.4333e+00|  7.4333e+00|   -7.639987|  6.9939e-05|    0.073333|
|        1150|  4.6025e+01|  4.6025e+01|   -7.654304|  6.3327e-05|    0.073337|
|        1160|  2.3748e+01|  2.3748e+01|   -7.657860|  5.6897e-05|    0.073342|
|        1170|  5.9093e+01|  5.9093e+01|   -7.645224|  5.0907e-05|    0.073350|
|        1180|  5.9093e+01|  5.9093e+01|   -7.645132|  4.5033e-05|    0.073347|
|        1190|  5.9093e+01|  5.9093e+01|   -7.642438|  3.9873e-05|    0.073339|
|        1200|  5.9093e+01|  5.9093e+01|   -7.638789|  3.6936e-05|    0.073325|
+-----------------------------------------------------------------------+
|        File Writing Summary       |              Filename             |
+-----------------------------------------------------------------------+
|SU2 binary restart                 |restart_flow_aoa15.dat             |
|Paraview                           |flow_aoa15.vtu                     |
|Paraview surface                   |surface_flow_aoa15.vtu             |
+-----------------------------------------------------------------------+
+-----------------------------------------------------------------------------+
|  Inner_Iter|     Min CFL|     Max CFL|      rms[P]|  Cauchy[CD]|          CD|
+-----------------------------------------------------------------------------+
|        1210|  5.9093e+01|  5.9093e+01|   -7.634982|  3.5039e-05|    0.073299|
|        1220|  5.9093e+01|  5.9093e+01|   -7.630921|  3.4731e-05|    0.073268|
|        1230|  5.9093e+01|  5.9093e+01|   -7.626343|  3.4168e-05|    0.073232|
|        1240|  5.9093e+01|  5.9093e+01|   -7.621413|  3.2195e-05|    0.073188|
|        1250|  5.9093e+01|  5.9093e+01|   -7.616977|  3.0090e-05|    0.073134|
|        1260|  5.9093e+01|  5.9093e+01|   -7.613533|  2.8842e-05|    0.073074|
|        1270|  5.9093e+01|  5.9093e+01|   -7.611409|  2.9439e-05|    0.073008|
|        1280|  5.9093e+01|  5.9093e+01|   -7.610609|  3.0352e-05|    0.072937|
|        1290|  5.9093e+01|  5.9093e+01|   -7.610866|  3.2238e-05|    0.072860|
|        1300|  1.0211e+01|  1.0211e+01|   -7.593676|  3.4008e-05|    0.072790|
|        1310|  6.3225e+01|  6.3225e+01|   -7.621831|  3.2977e-05|    0.072756|
|        1320|  3.2623e+01|  3.2623e+01|   -7.631046|  3.1719e-05|    0.072727|
|        1330|  1.6833e+01|  1.6833e+01|   -7.634778|  3.2655e-05|    0.072683|
|        1340|  6.0314e+01|  6.0314e+01|   -7.621695|  3.4024e-05|    0.072620|
|        1350|  6.0314e+01|  6.0314e+01|   -7.623564|  3.7320e-05|    0.072512|
|        1360|  3.1121e+01|  3.1121e+01|   -7.637756|  3.8639e-05|    0.072465|
|        1370|  1.6058e+01|  1.6058e+01|   -7.642355|  3.9078e-05|    0.072423|
|        1380|  8.2854e+00|  8.2854e+00|   -7.635278|  4.0903e-05|    0.072363|
|        1390|  5.1301e+01|  5.1301e+01|   -7.646444|  4.1924e-05|    0.072322|
|        1400|  6.1561e+01|  6.1561e+01|   -7.646901|  4.6431e-05|    0.072205|
+-----------------------------------------------------------------------+
|        File Writing Summary       |              Filename             |
+-----------------------------------------------------------------------+
|SU2 binary restart                 |restart_flow_aoa15.dat             |
|Paraview                           |flow_aoa15.vtu                     |
|Paraview surface                   |surface_flow_aoa15.vtu             |
+-----------------------------------------------------------------------+
+-----------------------------------------------------------------------------+
|  Inner_Iter|     Min CFL|     Max CFL|      rms[P]|  Cauchy[CD]|          CD|
+-----------------------------------------------------------------------------+
|        1410|  3.1764e+01|  3.1764e+01|   -7.661705|  4.8372e-05|    0.072151|
|        1420|  1.6390e+01|  1.6390e+01|   -7.667879|  4.9937e-05|    0.072102|
|        1430|  8.4567e+00|  8.4567e+00|   -7.669066|  5.2603e-05|    0.072032|
|        1440|  5.2362e+01|  5.2362e+01|   -7.681390|  5.4111e-05|    0.071986|
|        1450|  6.2834e+01|  6.2834e+01|   -7.685802|  5.8757e-05|    0.071856|
|        1460|  3.2421e+01|  3.2421e+01|   -7.702960|  6.0160e-05|    0.071795|
|        1470|  1.6729e+01|  1.6729e+01|   -7.709769|  6.1142e-05|    0.071740|
|        1480|  8.6316e+00|  8.6316e+00|   -7.717577|  6.2770e-05|    0.071663|
|        1490|  5.3444e+01|  5.3444e+01|   -7.733324|  6.3024e-05|    0.071612|
|        1500|  6.4133e+01|  6.4133e+01|   -7.742750|  6.6640e-05|    0.071468|
|        1510|  1.3299e+01|  1.3299e+01|   -7.750740|  6.8953e-05|    0.071350|
|        1520|  6.8618e+00|  6.8618e+00|   -7.782216|  6.9339e-05|    0.071275|
|        1530|  4.2487e+01|  4.2487e+01|   -7.800014|  6.8231e-05|    0.071231|
|        1540|  2.1922e+01|  2.1922e+01|   -7.804026|  6.7906e-05|    0.071163|
|        1550|  6.5459e+01|  6.5459e+01|   -7.815864|  6.9630e-05|    0.071049|
|        1560|  6.5459e+01|  6.5459e+01|   -7.843537|  7.4997e-05|    0.070882|
|        1570|  6.5459e+01|  6.5459e+01|   -7.871373|  8.0436e-05|    0.070716|
|        1580|  6.5459e+01|  6.5459e+01|   -7.899201|  8.5261e-05|    0.070552|
|        1590|  6.5459e+01|  6.5459e+01|   -7.924373|  8.9525e-05|    0.070382|
|        1600|  6.5459e+01|  6.5459e+01|   -7.946701|  9.2084e-05|    0.070210|
+-----------------------------------------------------------------------+
|        File Writing Summary       |              Filename             |
+-----------------------------------------------------------------------+
|SU2 binary restart                 |restart_flow_aoa15.dat             |
|Paraview                           |flow_aoa15.vtu                     |
|Paraview surface                   |surface_flow_aoa15.vtu             |
+-----------------------------------------------------------------------+
+-----------------------------------------------------------------------------+
|  Inner_Iter|     Min CFL|     Max CFL|      rms[P]|  Cauchy[CD]|          CD|
+-----------------------------------------------------------------------------+
|        1610|  6.5459e+01|  6.5459e+01|   -7.964196|  9.7173e-05|    0.070035|
|        1620|  6.5459e+01|  6.5459e+01|   -7.974568|  1.0263e-04|    0.069857|
|        1630|  6.5459e+01|  6.5459e+01|   -7.976649|  1.0742e-04|    0.069677|
|        1640|  6.5459e+01|  6.5459e+01|   -7.971856|  1.1305e-04|    0.069495|
|        1650|  6.5459e+01|  6.5459e+01|   -7.961333|  1.1576e-04|    0.069311|
|        1660|  6.5459e+01|  6.5459e+01|   -7.946658|  1.2099e-04|    0.069126|
|        1670|  6.5459e+01|  6.5459e+01|   -7.931050|  1.2647e-04|    0.068940|
|        1680|  6.5459e+01|  6.5459e+01|   -7.916320|  1.3125e-04|    0.068751|
|        1690|  6.5459e+01|  6.5459e+01|   -7.903049|  1.3698e-04|    0.068562|
|        1700|  6.5459e+01|  6.5459e+01|   -7.892643|  1.3936e-04|    0.068372|
|        1710|  6.5459e+01|  6.5459e+01|   -7.886222|  1.4457e-04|    0.068181|
|        1720|  6.5459e+01|  6.5459e+01|   -7.883681|  1.4994e-04|    0.067991|
|        1730|  6.5459e+01|  6.5459e+01|   -7.885150|  1.5446e-04|    0.067801|
|        1740|  6.5459e+01|  6.5459e+01|   -7.891144|  1.6000e-04|    0.067612|
|        1750|  6.5459e+01|  6.5459e+01|   -7.901629|  1.6176e-04|    0.067424|
|        1760|  6.5459e+01|  6.5459e+01|   -7.916367|  1.6452e-04|    0.067237|
|        1770|  1.3574e+01|  1.3574e+01|   -7.933439|  1.6638e-04|    0.067115|
|        1780|  7.0037e+00|  7.0037e+00|   -7.950294|  1.6840e-04|    0.067021|
|        1790|  4.3365e+01|  4.3365e+01|   -7.967565|  1.6777e-04|    0.066968|
|        1800|  6.2446e+01|  6.2446e+01|   -7.972056|  1.6990e-04|    0.066802|
+-----------------------------------------------------------------------+
|        File Writing Summary       |              Filename             |
+-----------------------------------------------------------------------+
|SU2 binary restart                 |restart_flow_aoa15.dat             |
|Paraview                           |flow_aoa15.vtu                     |
|Paraview surface                   |surface_flow_aoa15.vtu             |
+-----------------------------------------------------------------------+
+-----------------------------------------------------------------------------+
|  Inner_Iter|     Min CFL|     Max CFL|      rms[P]|  Cauchy[CD]|          CD|
+-----------------------------------------------------------------------------+
|        1810|  6.2446e+01|  6.2446e+01|   -8.000060|  1.7019e-04|    0.066627|
|        1820|  6.2446e+01|  6.2446e+01|   -8.024413|  1.7047e-04|    0.066454|
|        1830|  6.2446e+01|  6.2446e+01|   -8.053987|  1.7054e-04|    0.066288|
|        1840|  6.2446e+01|  6.2446e+01|   -8.082972|  1.7032e-04|    0.066124|
|        1850|  6.2446e+01|  6.2446e+01|   -8.110862|  1.6991e-04|    0.065962|
|        1860|  6.2446e+01|  6.2446e+01|   -8.134794|  1.6926e-04|    0.065804|
|        1870|  6.2446e+01|  6.2446e+01|   -8.155027|  1.6834e-04|    0.065648|
|        1880|  6.2446e+01|  6.2446e+01|   -8.170256|  1.6725e-04|    0.065496|
|        1890|  6.2446e+01|  6.2446e+01|   -8.179210|  1.6593e-04|    0.065347|
|        1900|  6.2446e+01|  6.2446e+01|   -8.182488|  1.6436e-04|    0.065202|
|        1910|  6.2446e+01|  6.2446e+01|   -8.182152|  1.6260e-04|    0.065061|
|        1920|  6.2446e+01|  6.2446e+01|   -8.179276|  1.6066e-04|    0.064923|
|        1930|  6.2446e+01|  6.2446e+01|   -8.174662|  1.5852e-04|    0.064788|
|        1940|  6.2446e+01|  6.2446e+01|   -8.170192|  1.5621e-04|    0.064656|
|        1950|  1.8646e+01|  1.8646e+01|   -8.195914|  1.5120e-04|    0.064592|
|        1960|  9.6210e+00|  9.6210e+00|   -8.160067|  1.4609e-04|    0.064529|
|        1970|  5.9571e+01|  5.9571e+01|   -8.188853|  1.4048e-04|    0.064479|
|        1980|  5.9571e+01|  5.9571e+01|   -8.172773|  1.3765e-04|    0.064360|
|        1990|  5.9571e+01|  5.9571e+01|   -8.175788|  1.3480e-04|    0.064242|
|        2000|  5.9571e+01|  5.9571e+01|   -8.177302|  1.3188e-04|    0.064127|
+-----------------------------------------------------------------------+
|        File Writing Summary       |              Filename             |
+-----------------------------------------------------------------------+
|SU2 binary restart                 |restart_flow_aoa15.dat             |
|Paraview                           |flow_aoa15.vtu                     |
|Paraview surface                   |surface_flow_aoa15.vtu             |
+-----------------------------------------------------------------------+
+-----------------------------------------------------------------------------+
|  Inner_Iter|     Min CFL|     Max CFL|      rms[P]|  Cauchy[CD]|          CD|
+-----------------------------------------------------------------------------+
|        2010|  5.9571e+01|  5.9571e+01|   -8.184145|  1.2883e-04|    0.064016|
|        2020|  5.9571e+01|  5.9571e+01|   -8.193493|  1.2832e-04|    0.063907|
|        2030|  1.4823e+01|  1.4823e+01|   -8.217697|  1.2704e-04|    0.063845|
|        2040|  7.6484e+00|  7.6484e+00|   -8.213672|  1.2709e-04|    0.063791|
|        2050|  4.7357e+01|  4.7357e+01|   -8.235352|  1.2187e-04|    0.063755|
|        2060|  5.6828e+01|  5.6828e+01|   -8.231189|  1.1877e-04|    0.063658|
|        2070|  5.6828e+01|  5.6828e+01|   -8.249932|  1.1591e-04|    0.063557|
|        2080|  5.6828e+01|  5.6828e+01|   -8.261722|  1.1330e-04|    0.063456|
|        2090|  5.6828e+01|  5.6828e+01|   -8.278559|  1.1066e-04|    0.063357|
|        2100|  6.8194e+00|  6.8194e+00|   -8.292828|  1.0770e-04|    0.063270|
|        2110|  4.2224e+01|  4.2224e+01|   -8.321821|  1.0255e-04|    0.063240|
|        2120|  2.1787e+01|  2.1787e+01|   -8.330182|  9.7871e-05|    0.063202|
|        2130|  5.4212e+01|  5.4212e+01|   -8.315067|  9.4669e-05|    0.063129|
|        2140|  5.4212e+01|  5.4212e+01|   -8.325912|  9.2376e-05|    0.063038|
|        2150|  5.4212e+01|  5.4212e+01|   -8.329631|  9.0312e-05|    0.062944|
|        2160|  5.4212e+01|  5.4212e+01|   -8.330340|  8.8416e-05|    0.062851|
|        2170|  5.4212e+01|  5.4212e+01|   -8.329107|  8.6594e-05|    0.062758|
|        2180|  5.4212e+01|  5.4212e+01|   -8.324931|  8.4857e-05|    0.062667|
|        2190|  5.4212e+01|  5.4212e+01|   -8.320507|  8.3264e-05|    0.062575|
|        2200|  5.4212e+01|  5.4212e+01|   -8.315612|  8.4354e-05|    0.062483|
+-----------------------------------------------------------------------+
|        File Writing Summary       |              Filename             |
+-----------------------------------------------------------------------+
|SU2 binary restart                 |restart_flow_aoa15.dat             |
|Paraview                           |flow_aoa15.vtu                     |
|Paraview surface                   |surface_flow_aoa15.vtu             |
+-----------------------------------------------------------------------+
+-----------------------------------------------------------------------------+
|  Inner_Iter|     Min CFL|     Max CFL|      rms[P]|  Cauchy[CD]|          CD|
+-----------------------------------------------------------------------------+
|        2210|  5.4212e+01|  5.4212e+01|   -8.311419|  8.5549e-05|    0.062390|
|        2220|  5.4212e+01|  5.4212e+01|   -8.307629|  8.7302e-05|    0.062296|
|        2230|  5.4212e+01|  5.4212e+01|   -8.304851|  8.6315e-05|    0.062202|
|        2240|  5.4212e+01|  5.4212e+01|   -8.303538|  8.5348e-05|    0.062108|
|        2250|  5.4212e+01|  5.4212e+01|   -8.304056|  8.4480e-05|    0.062015|
|        2260|  5.4212e+01|  5.4212e+01|   -8.306280|  8.3795e-05|    0.061921|
|        2270|  5.4212e+01|  5.4212e+01|   -8.310324|  8.3208e-05|    0.061827|
|        2280|  2.7972e+01|  2.7972e+01|   -8.328670|  8.1902e-05|    0.061798|
|        2290|  1.4433e+01|  1.4433e+01|   -8.328708|  8.1441e-05|    0.061755|
|        2300|  5.1716e+01|  5.1716e+01|   -8.324884|  8.2370e-05|    0.061696|
|        2310|  5.1716e+01|  5.1716e+01|   -8.330453|  8.2074e-05|    0.061606|
|        2320|  5.1716e+01|  5.1716e+01|   -8.341162|  8.1665e-05|    0.061515|
|        2330|  5.1716e+01|  5.1716e+01|   -8.348443|  8.1260e-05|    0.061424|
|        2340|  5.1716e+01|  5.1716e+01|   -8.359514|  8.0941e-05|    0.061334|
|        2350|  5.1716e+01|  5.1716e+01|   -8.369857|  8.1025e-05|    0.061244|
|        2360|  5.1716e+01|  5.1716e+01|   -8.381536|  8.3447e-05|    0.061154|
|        2370|  5.1716e+01|  5.1716e+01|   -8.391848|  8.5496e-05|    0.061064|
|        2380|  1.5442e+01|  1.5442e+01|   -8.417463|  8.4387e-05|    0.061019|
|        2390|  7.9679e+00|  7.9679e+00|   -8.390269|  8.2528e-05|    0.060974|
|        2400|  4.9335e+01|  4.9335e+01|   -8.423666|  8.0231e-05|    0.060939|
+-----------------------------------------------------------------------+
|        File Writing Summary       |              Filename             |
+-----------------------------------------------------------------------+
|SU2 binary restart                 |restart_flow_aoa15.dat             |
|Paraview                           |flow_aoa15.vtu                     |
|Paraview surface                   |surface_flow_aoa15.vtu             |
+-----------------------------------------------------------------------+
+-----------------------------------------------------------------------------+
|  Inner_Iter|     Min CFL|     Max CFL|      rms[P]|  Cauchy[CD]|          CD|
+-----------------------------------------------------------------------------+
|        2410|  4.9335e+01|  4.9335e+01|   -8.418186|  7.9873e-05|    0.060854|
|        2420|  4.9335e+01|  4.9335e+01|   -8.428626|  7.9609e-05|    0.060768|
|        2430|  4.9335e+01|  4.9335e+01|   -8.431747|  7.9385e-05|    0.060682|
|        2440|  4.9335e+01|  4.9335e+01|   -8.435485|  7.9124e-05|    0.060597|
|        2450|  4.9335e+01|  4.9335e+01|   -8.437633|  7.8831e-05|    0.060512|
|        2460|  4.9335e+01|  4.9335e+01|   -8.439607|  7.8509e-05|    0.060428|
|        2470|  4.9335e+01|  4.9335e+01|   -8.440651|  7.8149e-05|    0.060343|
|        2480|  4.9335e+01|  4.9335e+01|   -8.439926|  7.7764e-05|    0.060258|
|        2490|  4.9335e+01|  4.9335e+01|   -8.438476|  7.7384e-05|    0.060174|
|        2500|  4.9335e+01|  4.9335e+01|   -8.437054|  7.7029e-05|    0.060089|
|        2510|  4.9335e+01|  4.9335e+01|   -8.436493|  7.6682e-05|    0.060004|
|        2520|  4.9335e+01|  4.9335e+01|   -8.436394|  7.6309e-05|    0.059919|
|        2530|  4.9335e+01|  4.9335e+01|   -8.436757|  7.8519e-05|    0.059835|
|        2540|  4.9335e+01|  4.9335e+01|   -8.437890|  8.0196e-05|    0.059750|
|        2550|  4.9335e+01|  4.9335e+01|   -8.440285|  8.1215e-05|    0.059666|
|        2560|  4.9335e+01|  4.9335e+01|   -8.443858|  8.0990e-05|    0.059581|
|        2570|  4.9335e+01|  4.9335e+01|   -8.448293|  8.0762e-05|    0.059496|
|        2580|  1.7678e+01|  1.7678e+01|   -8.467263|  7.8588e-05|    0.059459|
|        2590|  9.1213e+00|  9.1213e+00|   -8.445819|  7.6660e-05|    0.059417|
|        2600|  4.7064e+01|  4.7064e+01|   -8.469011|  7.4696e-05|    0.059377|
+-----------------------------------------------------------------------+
|        File Writing Summary       |              Filename             |
+-----------------------------------------------------------------------+
|SU2 binary restart                 |restart_flow_aoa15.dat             |
|Paraview                           |flow_aoa15.vtu                     |
|Paraview surface                   |surface_flow_aoa15.vtu             |
+-----------------------------------------------------------------------+
+-----------------------------------------------------------------------------+
|  Inner_Iter|     Min CFL|     Max CFL|      rms[P]|  Cauchy[CD]|          CD|
+-----------------------------------------------------------------------------+
|        2610|  4.7064e+01|  4.7064e+01|   -8.467437|  7.4315e-05|    0.059296|
|        2620|  4.7064e+01|  4.7064e+01|   -8.477340|  7.3969e-05|    0.059215|
|        2630|  4.7064e+01|  4.7064e+01|   -8.485059|  7.5454e-05|    0.059133|
|        2640|  4.7064e+01|  4.7064e+01|   -8.494570|  7.6925e-05|    0.059051|
|        2650|  4.7064e+01|  4.7064e+01|   -8.505445|  7.8741e-05|    0.058970|
|        2660|  4.7064e+01|  4.7064e+01|   -8.516396|  7.8597e-05|    0.058889|
|        2670|  4.7064e+01|  4.7064e+01|   -8.528107|  7.8417e-05|    0.058808|
|        2680|  4.7064e+01|  4.7064e+01|   -8.539007|  7.8205e-05|    0.058727|
|        2690|  4.7064e+01|  4.7064e+01|   -8.550053|  7.8005e-05|    0.058646|
|        2700|  4.7064e+01|  4.7064e+01|   -8.560869|  7.7858e-05|    0.058566|
|        2710|  4.7064e+01|  4.7064e+01|   -8.571120|  7.7737e-05|    0.058484|
|        2720|  4.7064e+01|  4.7064e+01|   -8.579981|  7.7594e-05|    0.058403|
|        2730|  9.7592e+00|  9.7592e+00|   -8.595745|  7.6329e-05|    0.058350|
|        2740|  5.0355e+00|  5.0355e+00|   -8.598339|  7.4694e-05|    0.058307|
|        2750|  3.1179e+01|  3.1179e+01|   -8.617703|  7.2215e-05|    0.058284|
|        2760|  4.4897e+01|  4.4897e+01|   -8.600682|  7.1697e-05|    0.058212|
|        2770|  4.4897e+01|  4.4897e+01|   -8.606066|  7.1356e-05|    0.058135|
|        2780|  4.4897e+01|  4.4897e+01|   -8.609836|  7.1036e-05|    0.058059|
|        2790|  4.4897e+01|  4.4897e+01|   -8.611192|  7.0734e-05|    0.057982|
|        2800|  4.4897e+01|  4.4897e+01|   -8.612794|  7.0410e-05|    0.057905|
+-----------------------------------------------------------------------+
|        File Writing Summary       |              Filename             |
+-----------------------------------------------------------------------+
|SU2 binary restart                 |restart_flow_aoa15.dat             |
|Paraview                           |flow_aoa15.vtu                     |
|Paraview surface                   |surface_flow_aoa15.vtu             |
+-----------------------------------------------------------------------+
+-----------------------------------------------------------------------------+
|  Inner_Iter|     Min CFL|     Max CFL|      rms[P]|  Cauchy[CD]|          CD|
+-----------------------------------------------------------------------------+
|        2810|  4.4897e+01|  4.4897e+01|   -8.612963|  7.0049e-05|    0.057830|
|        2820|  4.4897e+01|  4.4897e+01|   -8.613497|  6.9676e-05|    0.057754|
|        2830|  4.4897e+01|  4.4897e+01|   -8.613416|  7.1225e-05|    0.057679|
|        2840|  4.4897e+01|  4.4897e+01|   -8.613098|  7.2535e-05|    0.057604|
|        2850|  4.4897e+01|  4.4897e+01|   -8.613078|  7.3886e-05|    0.057529|
|        2860|  4.4897e+01|  4.4897e+01|   -8.613467|  7.3648e-05|    0.057455|
|        2870|  4.4897e+01|  4.4897e+01|   -8.614070|  7.3389e-05|    0.057380|
|        2880|  4.4897e+01|  4.4897e+01|   -8.614437|  7.3092e-05|    0.057306|
|        2890|  4.4897e+01|  4.4897e+01|   -8.614879|  7.2772e-05|    0.057232|
|        2900|  4.4897e+01|  4.4897e+01|   -8.615776|  7.2455e-05|    0.057159|
|        2910|  4.4897e+01|  4.4897e+01|   -8.617311|  7.2134e-05|    0.057086|
|        2920|  4.4897e+01|  4.4897e+01|   -8.619309|  7.1800e-05|    0.057013|
|        2930|  4.4897e+01|  4.4897e+01|   -8.621586|  7.1474e-05|    0.056940|
|        2940|  4.4897e+01|  4.4897e+01|   -8.624083|  7.1153e-05|    0.056868|
|        2950|  4.4897e+01|  4.4897e+01|   -8.626809|  7.0805e-05|    0.056795|
|        2960|  4.4897e+01|  4.4897e+01|   -8.629707|  7.0423e-05|    0.056724|
|        2970|  4.4897e+01|  4.4897e+01|   -8.632734|  7.0031e-05|    0.056652|
|        2980|  4.4897e+01|  4.4897e+01|   -8.635980|  7.0763e-05|    0.056581|
|        2990|  4.4897e+01|  4.4897e+01|   -8.639479|  7.1871e-05|    0.056510|
|        3000|  4.4897e+01|  4.4897e+01|   -8.643096|  7.3801e-05|    0.056439|
+-----------------------------------------------------------------------+
|        File Writing Summary       |              Filename             |
+-----------------------------------------------------------------------+
|SU2 binary restart                 |restart_flow_aoa15.dat             |
|Paraview                           |flow_aoa15.vtu                     |
|Paraview surface                   |surface_flow_aoa15.vtu             |
+-----------------------------------------------------------------------+
+-----------------------------------------------------------------------------+
|  Inner_Iter|     Min CFL|     Max CFL|      rms[P]|  Cauchy[CD]|          CD|
+-----------------------------------------------------------------------------+
|        3010|  1.1172e+01|  1.1172e+01|   -8.671081|  7.2549e-05|    0.056398|
|        3020|  5.7644e+00|  5.7644e+00|   -8.649751|  7.0992e-05|    0.056361|
|        3030|  3.5692e+01|  3.5692e+01|   -8.670372|  6.8878e-05|    0.056337|
|        3040|  4.2830e+01|  4.2830e+01|   -8.655985|  6.8405e-05|    0.056272|
|        3050|  4.2830e+01|  4.2830e+01|   -8.658868|  6.8021e-05|    0.056205|
|        3060|  4.2830e+01|  4.2830e+01|   -8.661443|  6.7661e-05|    0.056138|
|        3070|  4.2830e+01|  4.2830e+01|   -8.663294|  6.7316e-05|    0.056071|
|        3080|  4.2830e+01|  4.2830e+01|   -8.665981|  6.6968e-05|    0.056005|
|        3090|  4.2830e+01|  4.2830e+01|   -8.668279|  6.6626e-05|    0.055938|
|        3100|  4.2830e+01|  4.2830e+01|   -8.670747|  6.6291e-05|    0.055872|
|        3110|  4.2830e+01|  4.2830e+01|   -8.673090|  6.5946e-05|    0.055806|
|        3120|  4.2830e+01|  4.2830e+01|   -8.675139|  6.5580e-05|    0.055741|
|        3130|  4.2830e+01|  4.2830e+01|   -8.677190|  6.5210e-05|    0.055676|
|        3140|  4.2830e+01|  4.2830e+01|   -8.679474|  6.4863e-05|    0.055610|
|        3150|  4.2830e+01|  4.2830e+01|   -8.682111|  6.4542e-05|    0.055545|
|        3160|  4.2830e+01|  4.2830e+01|   -8.684767|  6.4232e-05|    0.055480|
|        3170|  4.2830e+01|  4.2830e+01|   -8.687323|  6.3915e-05|    0.055415|
|        3180|  4.2830e+01|  4.2830e+01|   -8.689836|  6.3589e-05|    0.055350|
|        3190|  4.2830e+01|  4.2830e+01|   -8.692477|  6.3264e-05|    0.055286|
|        3200|  4.2830e+01|  4.2830e+01|   -8.695468|  6.2946e-05|    0.055222|
+-----------------------------------------------------------------------+
|        File Writing Summary       |              Filename             |
+-----------------------------------------------------------------------+
|SU2 binary restart                 |restart_flow_aoa15.dat             |
|Paraview                           |flow_aoa15.vtu                     |
|Paraview surface                   |surface_flow_aoa15.vtu             |
+-----------------------------------------------------------------------+
+-----------------------------------------------------------------------------+
|  Inner_Iter|     Min CFL|     Max CFL|      rms[P]|  Cauchy[CD]|          CD|
+-----------------------------------------------------------------------------+
|        3210|  4.2830e+01|  4.2830e+01|   -8.698735|  6.2638e-05|    0.055158|
|        3220|  4.2830e+01|  4.2830e+01|   -8.702130|  6.2336e-05|    0.055094|
|        3230|  4.2830e+01|  4.2830e+01|   -8.705575|  6.2037e-05|    0.055030|
|        3240|  4.2830e+01|  4.2830e+01|   -8.709073|  6.1735e-05|    0.054966|
|        3250|  4.2830e+01|  4.2830e+01|   -8.712626|  6.1430e-05|    0.054903|
|        3260|  4.2830e+01|  4.2830e+01|   -8.716167|  6.2323e-05|    0.054840|
|        3270|  4.2830e+01|  4.2830e+01|   -8.719703|  6.3338e-05|    0.054777|
|        3280|  4.2830e+01|  4.2830e+01|   -8.723372|  6.4890e-05|    0.054715|
|        3290|  4.2830e+01|  4.2830e+01|   -8.727204|  6.4782e-05|    0.054652|
|        3300|  4.2830e+01|  4.2830e+01|   -8.731033|  6.4599e-05|    0.054590|
|        3310|  4.2830e+01|  4.2830e+01|   -8.734609|  6.4410e-05|    0.054528|
|        3320|  4.2830e+01|  4.2830e+01|   -8.737823|  6.4203e-05|    0.054466|
|        3330|  4.2830e+01|  4.2830e+01|   -8.740718|  6.3993e-05|    0.054405|
|        3340|  1.5347e+01|  1.5347e+01|   -8.762599|  6.2400e-05|    0.054378|
|        3350|  7.9186e+00|  7.9186e+00|   -8.720985|  6.0991e-05|    0.054347|
|        3360|  4.0858e+01|  4.0858e+01|   -8.756822|  5.9529e-05|    0.054318|
|        3370|  4.0858e+01|  4.0858e+01|   -8.751235|  5.9204e-05|    0.054261|
|        3380|  4.0858e+01|  4.0858e+01|   -8.753447|  5.8916e-05|    0.054203|
|        3390|  4.0858e+01|  4.0858e+01|   -8.755810|  5.8622e-05|    0.054145|
|        3400|  4.0858e+01|  4.0858e+01|   -8.757205|  5.8326e-05|    0.054087|
+-----------------------------------------------------------------------+
|        File Writing Summary       |              Filename             |
+-----------------------------------------------------------------------+
|SU2 binary restart                 |restart_flow_aoa15.dat             |
|Paraview                           |flow_aoa15.vtu                     |
|Paraview surface                   |surface_flow_aoa15.vtu             |
+-----------------------------------------------------------------------+
+-----------------------------------------------------------------------------+
|  Inner_Iter|     Min CFL|     Max CFL|      rms[P]|  Cauchy[CD]|          CD|
+-----------------------------------------------------------------------------+
|        3410|  4.0858e+01|  4.0858e+01|   -8.758822|  5.8019e-05|    0.054029|
|        3420|  4.0858e+01|  4.0858e+01|   -8.759881|  5.7705e-05|    0.053972|
|        3430|  4.0858e+01|  4.0858e+01|   -8.760855|  5.7397e-05|    0.053915|
|        3440|  4.0858e+01|  4.0858e+01|   -8.762017|  5.7091e-05|    0.053859|
|        3450|  4.0858e+01|  4.0858e+01|   -8.763079|  5.6778e-05|    0.053802|
|        3460|  4.0858e+01|  4.0858e+01|   -8.763970|  5.6454e-05|    0.053746|
|        3470|  4.0858e+01|  4.0858e+01|   -8.764654|  5.6130e-05|    0.053690|
|        3480|  4.0858e+01|  4.0858e+01|   -8.765341|  5.5816e-05|    0.053635|
|        3490|  4.0858e+01|  4.0858e+01|   -8.765991|  5.5511e-05|    0.053579|
|        3500|  4.0858e+01|  4.0858e+01|   -8.766406|  5.5207e-05|    0.053523|
|        3510|  4.0858e+01|  4.0858e+01|   -8.766023|  5.4901e-05|    0.053467|
|        3520|  4.0858e+01|  4.0858e+01|   -8.766008|  5.4596e-05|    0.053412|
|        3530|  4.0858e+01|  4.0858e+01|   -8.766166|  5.4292e-05|    0.053357|
|        3540|  4.0858e+01|  4.0858e+01|   -8.766591|  5.3991e-05|    0.053302|
|        3550|  4.0858e+01|  4.0858e+01|   -8.767188|  5.3691e-05|    0.053248|
|        3560|  4.0858e+01|  4.0858e+01|   -8.767763|  5.3396e-05|    0.053193|
|        3570|  4.0858e+01|  4.0858e+01|   -8.768222|  5.3106e-05|    0.053138|
|        3580|  4.0858e+01|  4.0858e+01|   -8.768528|  5.2821e-05|    0.053084|
|        3590|  4.0858e+01|  4.0858e+01|   -8.768718|  5.3932e-05|    0.053030|
|        3600|  4.0858e+01|  4.0858e+01|   -8.768916|  5.4856e-05|    0.052976|
+-----------------------------------------------------------------------+
|        File Writing Summary       |              Filename             |
+-----------------------------------------------------------------------+
|SU2 binary restart                 |restart_flow_aoa15.dat             |
|Paraview                           |flow_aoa15.vtu                     |
|Paraview surface                   |surface_flow_aoa15.vtu             |
+-----------------------------------------------------------------------+
+-----------------------------------------------------------------------------+
|  Inner_Iter|     Min CFL|     Max CFL|      rms[P]|  Cauchy[CD]|          CD|
+-----------------------------------------------------------------------------+
|        3610|  4.0858e+01|  4.0858e+01|   -8.769220|  5.5833e-05|    0.052922|
|        3620|  4.0858e+01|  4.0858e+01|   -8.769729|  5.5685e-05|    0.052868|
|        3630|  4.0858e+01|  4.0858e+01|   -8.770393|  5.5513e-05|    0.052815|
|        3640|  4.0858e+01|  4.0858e+01|   -8.771108|  5.5342e-05|    0.052761|
|        3650|  4.0858e+01|  4.0858e+01|   -8.771846|  5.5163e-05|    0.052708|
|        3660|  4.0858e+01|  4.0858e+01|   -8.772512|  5.4989e-05|    0.052655|
|        3670|  4.0858e+01|  4.0858e+01|   -8.773099|  5.4826e-05|    0.052602|
|        3680|  4.0858e+01|  4.0858e+01|   -8.773730|  5.4667e-05|    0.052549|
|        3690|  4.0858e+01|  4.0858e+01|   -8.774497|  5.4511e-05|    0.052496|
|        3700|  4.0858e+01|  4.0858e+01|   -8.775462|  5.4365e-05|    0.052443|
|        3710|  4.0858e+01|  4.0858e+01|   -8.776583|  5.4230e-05|    0.052391|
|        3720|  4.0858e+01|  4.0858e+01|   -8.777820|  5.4094e-05|    0.052338|
|        3730|  4.0858e+01|  4.0858e+01|   -8.779030|  5.3951e-05|    0.052286|
|        3740|  4.0858e+01|  4.0858e+01|   -8.780230|  5.3803e-05|    0.052234|
|        3750|  4.0858e+01|  4.0858e+01|   -8.781443|  5.3656e-05|    0.052181|
|        3760|  4.0858e+01|  4.0858e+01|   -8.782741|  5.3515e-05|    0.052130|
|        3770|  4.0858e+01|  4.0858e+01|   -8.784173|  5.3377e-05|    0.052078|
|        3780|  4.0858e+01|  4.0858e+01|   -8.785719|  5.3240e-05|    0.052026|
|        3790|  4.0858e+01|  4.0858e+01|   -8.787380|  5.3102e-05|    0.051975|
|        3800|  4.0858e+01|  4.0858e+01|   -8.789072|  5.2964e-05|    0.051924|
+-----------------------------------------------------------------------+
|        File Writing Summary       |              Filename             |
+-----------------------------------------------------------------------+
|SU2 binary restart                 |restart_flow_aoa15.dat             |
|Paraview                           |flow_aoa15.vtu                     |
|Paraview surface                   |surface_flow_aoa15.vtu             |
+-----------------------------------------------------------------------+
+-----------------------------------------------------------------------------+
|  Inner_Iter|     Min CFL|     Max CFL|      rms[P]|  Cauchy[CD]|          CD|
+-----------------------------------------------------------------------------+
|        3810|  4.0858e+01|  4.0858e+01|   -8.790799|  5.2824e-05|    0.051872|
|        3820|  4.0858e+01|  4.0858e+01|   -8.792524|  5.2685e-05|    0.051821|
|        3830|  4.0858e+01|  4.0858e+01|   -8.794256|  5.2546e-05|    0.051771|
|        3840|  4.0858e+01|  4.0858e+01|   -8.796043|  5.2408e-05|    0.051720|
|        3850|  4.0858e+01|  4.0858e+01|   -8.797911|  5.2272e-05|    0.051669|
|        3860|  4.0858e+01|  4.0858e+01|   -8.799822|  5.2137e-05|    0.051619|
|        3870|  4.0858e+01|  4.0858e+01|   -8.801735|  5.2001e-05|    0.051568|
|        3880|  4.0858e+01|  4.0858e+01|   -8.803589|  5.1864e-05|    0.051518|
|        3890|  4.0858e+01|  4.0858e+01|   -8.805381|  5.1724e-05|    0.051468|
|        3900|  4.0858e+01|  4.0858e+01|   -8.807083|  5.1584e-05|    0.051418|
|        3910|  4.0858e+01|  4.0858e+01|   -8.808779|  5.1443e-05|    0.051369|
|        3920|  4.0858e+01|  4.0858e+01|   -8.810462|  5.1303e-05|    0.051319|
|        3930|  4.0858e+01|  4.0858e+01|   -8.812139|  5.1161e-05|    0.051270|
|        3940|  4.0858e+01|  4.0858e+01|   -8.813785|  5.1016e-05|    0.051221|
|        3950|  4.0858e+01|  4.0858e+01|   -8.815387|  5.0868e-05|    0.051171|
|        3960|  4.0858e+01|  4.0858e+01|   -8.816956|  5.0720e-05|    0.051123|
|        3970|  4.0858e+01|  4.0858e+01|   -8.818433|  5.0570e-05|    0.051074|
|        3980|  4.0858e+01|  4.0858e+01|   -8.819835|  5.0420e-05|    0.051025|
|        3990|  4.0858e+01|  4.0858e+01|   -8.821141|  5.0271e-05|    0.050977|
|        4000|  4.0858e+01|  4.0858e+01|   -8.822431|  5.0123e-05|    0.050928|
+-----------------------------------------------------------------------+
|        File Writing Summary       |              Filename             |
+-----------------------------------------------------------------------+
|SU2 binary restart                 |restart_flow_aoa15.dat             |
|Paraview                           |flow_aoa15.vtu                     |
|Paraview surface                   |surface_flow_aoa15.vtu             |
+-----------------------------------------------------------------------+
+-----------------------------------------------------------------------------+
|  Inner_Iter|     Min CFL|     Max CFL|      rms[P]|  Cauchy[CD]|          CD|
+-----------------------------------------------------------------------------+
|        4010|  4.0858e+01|  4.0858e+01|   -8.823703|  4.9977e-05|    0.050880|
|        4020|  4.0858e+01|  4.0858e+01|   -8.824941|  4.9831e-05|    0.050832|
|        4030|  4.0858e+01|  4.0858e+01|   -8.826106|  4.9686e-05|    0.050784|
|        4040|  4.0858e+01|  4.0858e+01|   -8.827203|  4.9540e-05|    0.050736|
|        4050|  4.0858e+01|  4.0858e+01|   -8.828277|  4.9395e-05|    0.050689|
|        4060|  4.0858e+01|  4.0858e+01|   -8.829325|  4.9250e-05|    0.050641|
|        4070|  4.0858e+01|  4.0858e+01|   -8.830350|  4.9106e-05|    0.050594|
|        4080|  4.0858e+01|  4.0858e+01|   -8.831346|  4.8962e-05|    0.050546|
|        4090|  4.0858e+01|  4.0858e+01|   -8.832333|  4.8818e-05|    0.050499|
|        4100|  4.0858e+01|  4.0858e+01|   -8.833300|  4.8672e-05|    0.050452|
|        4110|  4.0858e+01|  4.0858e+01|   -8.834273|  4.8526e-05|    0.050406|
|        4120|  4.0858e+01|  4.0858e+01|   -8.835227|  4.8381e-05|    0.050359|
|        4130|  4.0858e+01|  4.0858e+01|   -8.836192|  4.8235e-05|    0.050312|
|        4140|  4.0858e+01|  4.0858e+01|   -8.837160|  4.8091e-05|    0.050266|
|        4150|  4.0858e+01|  4.0858e+01|   -8.838136|  4.7948e-05|    0.050220|
|        4160|  4.0858e+01|  4.0858e+01|   -8.839151|  4.7806e-05|    0.050174|
|        4170|  4.0858e+01|  4.0858e+01|   -8.840171|  4.7665e-05|    0.050127|
|        4180|  4.0858e+01|  4.0858e+01|   -8.841212|  4.7525e-05|    0.050082|
|        4190|  4.0858e+01|  4.0858e+01|   -8.842232|  4.7385e-05|    0.050036|
|        4200|  4.0858e+01|  4.0858e+01|   -8.843231|  4.7248e-05|    0.049990|
+-----------------------------------------------------------------------+
|        File Writing Summary       |              Filename             |
+-----------------------------------------------------------------------+
|SU2 binary restart                 |restart_flow_aoa15.dat             |
|Paraview                           |flow_aoa15.vtu                     |
|Paraview surface                   |surface_flow_aoa15.vtu             |
+-----------------------------------------------------------------------+
+-----------------------------------------------------------------------------+
|  Inner_Iter|     Min CFL|     Max CFL|      rms[P]|  Cauchy[CD]|          CD|
+-----------------------------------------------------------------------------+
|        4210|  4.0858e+01|  4.0858e+01|   -8.844241|  4.7113e-05|    0.049945|
|        4220|  4.0858e+01|  4.0858e+01|   -8.845309|  4.6978e-05|    0.049899|
|        4230|  4.0858e+01|  4.0858e+01|   -8.846404|  4.6844e-05|    0.049854|
|        4240|  4.0858e+01|  4.0858e+01|   -8.847529|  4.6709e-05|    0.049809|
|        4250|  4.0858e+01|  4.0858e+01|   -8.848648|  4.6573e-05|    0.049764|
|        4260|  4.0858e+01|  4.0858e+01|   -8.849768|  4.6436e-05|    0.049719|
|        4270|  4.0858e+01|  4.0858e+01|   -8.850876|  4.6299e-05|    0.049675|
|        4280|  4.0858e+01|  4.0858e+01|   -8.852028|  4.6161e-05|    0.049630|
|        4290|  4.0858e+01|  4.0858e+01|   -8.853218|  4.6023e-05|    0.049586|
|        4300|  4.0858e+01|  4.0858e+01|   -8.854408|  4.5884e-05|    0.049542|
|        4310|  4.0858e+01|  4.0858e+01|   -8.855661|  4.5745e-05|    0.049498|
|        4320|  4.0858e+01|  4.0858e+01|   -8.856907|  4.5606e-05|    0.049454|
|        4330|  4.0858e+01|  4.0858e+01|   -8.858178|  4.5466e-05|    0.049410|
|        4340|  4.0858e+01|  4.0858e+01|   -8.859461|  4.5328e-05|    0.049366|
|        4350|  4.0858e+01|  4.0858e+01|   -8.860743|  4.5191e-05|    0.049323|
|        4360|  4.0858e+01|  4.0858e+01|   -8.862024|  4.5055e-05|    0.049279|
|        4370|  4.0858e+01|  4.0858e+01|   -8.863337|  4.4920e-05|    0.049236|
|        4380|  4.0858e+01|  4.0858e+01|   -8.864654|  4.4785e-05|    0.049193|
|        4390|  4.0858e+00|  4.0858e+00|   -8.865966|  4.4649e-05|    0.049150|
|        4400|  2.5299e+01|  2.5299e+01|   -8.883004|  4.3252e-05|    0.049138|
+-----------------------------------------------------------------------+
|        File Writing Summary       |              Filename             |
+-----------------------------------------------------------------------+
|SU2 binary restart                 |restart_flow_aoa15.dat             |
|Paraview                           |flow_aoa15.vtu                     |
|Paraview surface                   |surface_flow_aoa15.vtu             |
+-----------------------------------------------------------------------+
+-----------------------------------------------------------------------------+
|  Inner_Iter|     Min CFL|     Max CFL|      rms[P]|  Cauchy[CD]|          CD|
+-----------------------------------------------------------------------------+
|        4410|  1.3053e+01|  1.3053e+01|   -8.883757|  4.2164e-05|    0.049119|
|        4420|  3.8977e+01|  3.8977e+01|   -8.871750|  4.1513e-05|    0.049090|
|        4430|  3.8977e+01|  3.8977e+01|   -8.872020|  4.1290e-05|    0.049049|
|        4440|  3.8977e+01|  3.8977e+01|   -8.873215|  4.1083e-05|    0.049009|
|        4450|  3.8977e+01|  3.8977e+01|   -8.874389|  4.0875e-05|    0.048968|
|        4460|  3.8977e+01|  3.8977e+01|   -8.875255|  4.0676e-05|    0.048928|
|        4470|  3.8977e+01|  3.8977e+01|   -8.876547|  4.0473e-05|    0.048888|
|        4480|  3.8977e+01|  3.8977e+01|   -8.877659|  4.0269e-05|    0.048847|
|        4490|  3.8977e+01|  3.8977e+01|   -8.878649|  4.0063e-05|    0.048807|
|        4500|  3.8977e+01|  3.8977e+01|   -8.879809|  3.9859e-05|    0.048768|
|        4510|  3.8977e+01|  3.8977e+01|   -8.881041|  3.9653e-05|    0.048728|
|        4520|  3.8977e+01|  3.8977e+01|   -8.882235|  3.9445e-05|    0.048688|
|        4530|  3.8977e+01|  3.8977e+01|   -8.883332|  3.9239e-05|    0.048649|
|        4540|  3.8977e+01|  3.8977e+01|   -8.884552|  3.9041e-05|    0.048610|
|        4550|  3.8977e+01|  3.8977e+01|   -8.885821|  3.8849e-05|    0.048570|
|        4560|  3.8977e+01|  3.8977e+01|   -8.887020|  3.8658e-05|    0.048531|
|        4570|  3.8977e+01|  3.8977e+01|   -8.888117|  3.8464e-05|    0.048492|
|        4580|  3.8977e+01|  3.8977e+01|   -8.889128|  3.8269e-05|    0.048453|
|        4590|  3.8977e+01|  3.8977e+01|   -8.890132|  3.8074e-05|    0.048414|
|        4600|  3.8977e+01|  3.8977e+01|   -8.891245|  3.7881e-05|    0.048376|
+-----------------------------------------------------------------------+
|        File Writing Summary       |              Filename             |
+-----------------------------------------------------------------------+
|SU2 binary restart                 |restart_flow_aoa15.dat             |
|Paraview                           |flow_aoa15.vtu                     |
|Paraview surface                   |surface_flow_aoa15.vtu             |
+-----------------------------------------------------------------------+
+-----------------------------------------------------------------------------+
|  Inner_Iter|     Min CFL|     Max CFL|      rms[P]|  Cauchy[CD]|          CD|
+-----------------------------------------------------------------------------+
|        4610|  3.8977e+01|  3.8977e+01|   -8.892426|  3.7688e-05|    0.048337|
|        4620|  3.8977e+01|  3.8977e+01|   -8.893616|  3.7497e-05|    0.048298|
|        4630|  3.8977e+01|  3.8977e+01|   -8.894782|  3.7308e-05|    0.048260|
|        4640|  3.8977e+01|  3.8977e+01|   -8.895861|  3.7119e-05|    0.048222|
|        4650|  3.8977e+01|  3.8977e+01|   -8.896843|  3.8189e-05|    0.048184|
|        4660|  3.8977e+01|  3.8977e+01|   -8.897744|  3.8950e-05|    0.048146|
|        4670|  3.8977e+01|  3.8977e+01|   -8.898629|  3.9274e-05|    0.048108|
|        4680|  3.8977e+01|  3.8977e+01|   -8.899592|  3.9172e-05|    0.048070|
|        4690|  3.8977e+01|  3.8977e+01|   -8.900703|  3.9056e-05|    0.048032|
|        4700|  3.8977e+01|  3.8977e+01|   -8.901934|  3.8943e-05|    0.047995|
|        4710|  3.8977e+01|  3.8977e+01|   -8.903164|  3.8821e-05|    0.047957|
|        4720|  3.8977e+01|  3.8977e+01|   -8.904297|  3.8702e-05|    0.047920|
|        4730|  3.8977e+01|  3.8977e+01|   -8.905286|  3.8585e-05|    0.047883|
|        4740|  3.8977e+01|  3.8977e+01|   -8.906208|  3.8469e-05|    0.047846|
|        4750|  3.8977e+01|  3.8977e+01|   -8.907064|  3.8354e-05|    0.047809|
|        4760|  3.8977e+01|  3.8977e+01|   -8.907987|  3.8242e-05|    0.047772|
|        4770|  3.8977e+01|  3.8977e+01|   -8.909071|  3.8136e-05|    0.047735|
|        4780|  3.8977e+01|  3.8977e+01|   -8.910277|  3.8031e-05|    0.047698|
|        4790|  3.8977e+01|  3.8977e+01|   -8.911484|  3.7918e-05|    0.047662|
|        4800|  3.8977e+01|  3.8977e+01|   -8.912610|  3.7799e-05|    0.047625|
+-----------------------------------------------------------------------+
|        File Writing Summary       |              Filename             |
+-----------------------------------------------------------------------+
|SU2 binary restart                 |restart_flow_aoa15.dat             |
|Paraview                           |flow_aoa15.vtu                     |
|Paraview surface                   |surface_flow_aoa15.vtu             |
+-----------------------------------------------------------------------+
+-----------------------------------------------------------------------------+
|  Inner_Iter|     Min CFL|     Max CFL|      rms[P]|  Cauchy[CD]|          CD|
+-----------------------------------------------------------------------------+
|        4810|  3.8977e+01|  3.8977e+01|   -8.913602|  3.7682e-05|    0.047589|
|        4820|  3.8977e+01|  3.8977e+01|   -8.914523|  3.7567e-05|    0.047553|
|        4830|  3.8977e+01|  3.8977e+01|   -8.915449|  3.7453e-05|    0.047517|
|        4840|  3.8977e+01|  3.8977e+01|   -8.916475|  3.7339e-05|    0.047481|
|        4850|  3.8977e+01|  3.8977e+01|   -8.917599|  3.7225e-05|    0.047445|
|        4860|  3.8977e+01|  3.8977e+01|   -8.918817|  3.7110e-05|    0.047409|
|        4870|  3.8977e+01|  3.8977e+01|   -8.920051|  3.6994e-05|    0.047374|
|        4880|  3.8977e+01|  3.8977e+01|   -8.921212|  3.6876e-05|    0.047338|
|        4890|  3.8977e+01|  3.8977e+01|   -8.922304|  3.6759e-05|    0.047303|
|        4900|  3.8977e+01|  3.8977e+01|   -8.923339|  3.6644e-05|    0.047268|
|        4910|  3.8977e+01|  3.8977e+01|   -8.924380|  3.6530e-05|    0.047232|
|        4920|  3.8977e+01|  3.8977e+01|   -8.925465|  3.6418e-05|    0.047197|
|        4930|  3.8977e+01|  3.8977e+01|   -8.926632|  3.6306e-05|    0.047162|
|        4940|  3.8977e+01|  3.8977e+01|   -8.927859|  3.6194e-05|    0.047128|
|        4950|  3.8977e+01|  3.8977e+01|   -8.929095|  3.6081e-05|    0.047093|
|        4960|  3.8977e+01|  3.8977e+01|   -8.930260|  3.5968e-05|    0.047058|
|        4970|  3.8977e+01|  3.8977e+01|   -8.931374|  3.5856e-05|    0.047024|
|        4980|  3.8977e+01|  3.8977e+01|   -8.932473|  3.5745e-05|    0.046989|
|        4990|  3.8977e+01|  3.8977e+01|   -8.933550|  3.5636e-05|    0.046955|
|        5000|  3.8977e+01|  3.8977e+01|   -8.934698|  3.5526e-05|    0.046921|
+-----------------------------------------------------------------------+
|        File Writing Summary       |              Filename             |
+-----------------------------------------------------------------------+
|SU2 binary restart                 |restart_flow_aoa15.dat             |
|Paraview                           |flow_aoa15.vtu                     |
|Paraview surface                   |surface_flow_aoa15.vtu             |
+-----------------------------------------------------------------------+
+-----------------------------------------------------------------------------+
|  Inner_Iter|     Min CFL|     Max CFL|      rms[P]|  Cauchy[CD]|          CD|
+-----------------------------------------------------------------------------+
|        5010|  3.8977e+01|  3.8977e+01|   -8.935886|  3.5417e-05|    0.046886|
|        5020|  3.8977e+01|  3.8977e+01|   -8.937107|  3.5306e-05|    0.046852|
|        5030|  3.8977e+01|  3.8977e+01|   -8.938314|  3.5195e-05|    0.046819|
|        5040|  3.8977e+01|  3.8977e+01|   -8.939481|  3.5084e-05|    0.046785|
|        5050|  3.8977e+01|  3.8977e+01|   -8.940615|  3.4972e-05|    0.046751|
|        5060|  3.8977e+01|  3.8977e+01|   -8.941721|  3.4860e-05|    0.046718|
|        5070|  3.8977e+01|  3.8977e+01|   -8.942848|  3.4750e-05|    0.046684|
|        5080|  3.8977e+01|  3.8977e+01|   -8.944018|  3.4641e-05|    0.046651|
|        5090|  3.8977e+01|  3.8977e+01|   -8.945204|  3.4533e-05|    0.046617|
|        5100|  3.8977e+01|  3.8977e+01|   -8.946408|  3.4426e-05|    0.046584|
|        5110|  3.8977e+01|  3.8977e+01|   -8.947570|  3.4319e-05|    0.046551|
|        5120|  3.8977e+01|  3.8977e+01|   -8.948688|  3.4214e-05|    0.046518|
|        5130|  3.8977e+01|  3.8977e+01|   -8.949774|  3.4109e-05|    0.046485|
|        5140|  3.8977e+01|  3.8977e+01|   -8.950860|  3.4005e-05|    0.046453|
|        5150|  3.8977e+01|  3.8977e+01|   -8.951967|  3.3902e-05|    0.046420|
|        5160|  3.8977e+01|  3.8977e+01|   -8.953076|  3.3799e-05|    0.046387|
|        5170|  3.8977e+01|  3.8977e+01|   -8.954213|  3.3696e-05|    0.046355|
|        5180|  3.8977e+01|  3.8977e+01|   -8.955343|  3.3593e-05|    0.046323|
|        5190|  3.8977e+01|  3.8977e+01|   -8.956469|  3.3491e-05|    0.046290|
|        5200|  3.8977e+01|  3.8977e+01|   -8.957563|  3.3388e-05|    0.046258|
+-----------------------------------------------------------------------+
|        File Writing Summary       |              Filename             |
+-----------------------------------------------------------------------+
|SU2 binary restart                 |restart_flow_aoa15.dat             |
|Paraview                           |flow_aoa15.vtu                     |
|Paraview surface                   |surface_flow_aoa15.vtu             |
+-----------------------------------------------------------------------+
+-----------------------------------------------------------------------------+
|  Inner_Iter|     Min CFL|     Max CFL|      rms[P]|  Cauchy[CD]|          CD|
+-----------------------------------------------------------------------------+
|        5210|  3.8977e+01|  3.8977e+01|   -8.958619|  3.3285e-05|    0.046226|
|        5220|  3.8977e+01|  3.8977e+01|   -8.959670|  3.3181e-05|    0.046194|
|        5230|  3.8977e+01|  3.8977e+01|   -8.960714|  3.3078e-05|    0.046162|
|        5240|  3.8977e+01|  3.8977e+01|   -8.961772|  3.2973e-05|    0.046130|
|        5250|  3.8977e+01|  3.8977e+01|   -8.962847|  3.2869e-05|    0.046099|
|        5260|  3.8977e+01|  3.8977e+01|   -8.963924|  3.2765e-05|    0.046067|
|        5270|  3.8977e+01|  3.8977e+01|   -8.965040|  3.2661e-05|    0.046036|
|        5280|  3.8977e+01|  3.8977e+01|   -8.966136|  3.2557e-05|    0.046005|
|        5290|  3.8977e+01|  3.8977e+01|   -8.967233|  3.2454e-05|    0.045973|
|        5300|  3.8977e+01|  3.8977e+01|   -8.968315|  3.2352e-05|    0.045942|
|        5310|  3.8977e+01|  3.8977e+01|   -8.969378|  3.2251e-05|    0.045911|
|        5320|  3.8977e+01|  3.8977e+01|   -8.970429|  3.2150e-05|    0.045880|
|        5330|  3.8977e+01|  3.8977e+01|   -8.971489|  3.2050e-05|    0.045849|
|        5340|  3.8977e+01|  3.8977e+01|   -8.972549|  3.1949e-05|    0.045819|
|        5350|  3.8977e+01|  3.8977e+01|   -8.973630|  3.1849e-05|    0.045788|
|        5360|  3.8977e+01|  3.8977e+01|   -8.974736|  3.1749e-05|    0.045758|
|        5370|  3.8977e+01|  3.8977e+01|   -8.975824|  3.1650e-05|    0.045727|
|        5380|  3.8977e+01|  3.8977e+01|   -8.976897|  3.1550e-05|    0.045697|
|        5390|  3.8977e+01|  3.8977e+01|   -8.977979|  3.1450e-05|    0.045666|
|        5400|  3.8977e+01|  3.8977e+01|   -8.979067|  3.1351e-05|    0.045636|
+-----------------------------------------------------------------------+
|        File Writing Summary       |              Filename             |
+-----------------------------------------------------------------------+
|SU2 binary restart                 |restart_flow_aoa15.dat             |
|Paraview                           |flow_aoa15.vtu                     |
|Paraview surface                   |surface_flow_aoa15.vtu             |
+-----------------------------------------------------------------------+
+-----------------------------------------------------------------------------+
|  Inner_Iter|     Min CFL|     Max CFL|      rms[P]|  Cauchy[CD]|          CD|
+-----------------------------------------------------------------------------+
|        5410|  3.8977e+01|  3.8977e+01|   -8.980173|  3.1252e-05|    0.045606|
|        5420|  3.8977e+01|  3.8977e+01|   -8.981276|  3.1152e-05|    0.045576|
|        5430|  3.8977e+01|  3.8977e+01|   -8.982380|  3.1053e-05|    0.045546|
|        5440|  3.8977e+01|  3.8977e+01|   -8.983483|  3.0953e-05|    0.045516|
|        5450|  3.8977e+01|  3.8977e+01|   -8.984573|  3.0853e-05|    0.045487|
|        5460|  3.8977e+01|  3.8977e+01|   -8.985676|  3.0753e-05|    0.045457|
|        5470|  3.8977e+01|  3.8977e+01|   -8.986799|  3.0654e-05|    0.045428|
|        5480|  3.8977e+01|  3.8977e+01|   -8.987940|  3.0555e-05|    0.045398|
|        5490|  3.8977e+01|  3.8977e+01|   -8.989086|  3.0456e-05|    0.045369|
|        5500|  3.8977e+01|  3.8977e+01|   -8.990239|  3.0358e-05|    0.045340|
|        5510|  3.8977e+01|  3.8977e+01|   -8.991374|  3.0261e-05|    0.045311|
|        5520|  3.8977e+01|  3.8977e+01|   -8.992529|  3.0164e-05|    0.045282|
|        5530|  3.8977e+01|  3.8977e+01|   -8.993650|  3.0069e-05|    0.045253|
|        5540|  3.8977e+01|  3.8977e+01|   -8.994789|  2.9974e-05|    0.045224|
|        5550|  3.8977e+01|  3.8977e+01|   -8.995938|  2.9880e-05|    0.045195|
|        5560|  3.8977e+01|  3.8977e+01|   -8.997090|  2.9785e-05|    0.045167|
|        5570|  3.8977e+01|  3.8977e+01|   -8.998243|  2.9691e-05|    0.045138|
|        5580|  3.8977e+01|  3.8977e+01|   -8.999395|  2.9597e-05|    0.045110|
|        5590|  3.8977e+01|  3.8977e+01|   -9.000554|  2.9503e-05|    0.045081|
|        5600|  3.8977e+01|  3.8977e+01|   -9.001714|  2.9410e-05|    0.045053|
+-----------------------------------------------------------------------+
|        File Writing Summary       |              Filename             |
+-----------------------------------------------------------------------+
|SU2 binary restart                 |restart_flow_aoa15.dat             |
|Paraview                           |flow_aoa15.vtu                     |
|Paraview surface                   |surface_flow_aoa15.vtu             |
+-----------------------------------------------------------------------+
+-----------------------------------------------------------------------------+
|  Inner_Iter|     Min CFL|     Max CFL|      rms[P]|  Cauchy[CD]|          CD|
+-----------------------------------------------------------------------------+
|        5610|  3.8977e+01|  3.8977e+01|   -9.002892|  2.9317e-05|    0.045025|
|        5620|  3.8977e+01|  3.8977e+01|   -9.004070|  2.9224e-05|    0.044996|
|        5630|  3.8977e+01|  3.8977e+01|   -9.005254|  2.9131e-05|    0.044968|
|        5640|  3.8977e+01|  3.8977e+01|   -9.006421|  2.9037e-05|    0.044940|
|        5650|  3.8977e+01|  3.8977e+01|   -9.007576|  2.8944e-05|    0.044913|
|        5660|  3.8977e+01|  3.8977e+01|   -9.008725|  2.8850e-05|    0.044885|
|        5670|  3.8977e+01|  3.8977e+01|   -9.009886|  2.8755e-05|    0.044857|
|        5680|  3.8977e+01|  3.8977e+01|   -9.011056|  2.8661e-05|    0.044830|
|        5690|  3.8977e+01|  3.8977e+01|   -9.012266|  2.8567e-05|    0.044802|
|        5700|  3.8977e+01|  3.8977e+01|   -9.013444|  2.8474e-05|    0.044775|
|        5710|  3.8977e+01|  3.8977e+01|   -9.014625|  2.8382e-05|    0.044748|
|        5720|  3.8977e+01|  3.8977e+01|   -9.015793|  2.8291e-05|    0.044720|
|        5730|  3.8977e+01|  3.8977e+01|   -9.016945|  2.8201e-05|    0.044693|
[...]
+-----------------------------------------------------------------------------+
|        8410|  3.9783e+01|  3.9783e+01|   -9.361704|  1.1378e-05|    0.039914|
|        8420|  3.9783e+01|  3.9783e+01|   -9.363151|  1.1336e-05|    0.039903|
|        8430|  3.9783e+01|  3.9783e+01|   -9.364606|  1.1295e-05|    0.039892|
|        8440|  3.9783e+01|  3.9783e+01|   -9.366060|  1.1253e-05|    0.039882|
|        8450|  3.9783e+01|  3.9783e+01|   -9.367515|  1.1212e-05|    0.039871|
|        8460|  3.9783e+01|  3.9783e+01|   -9.368966|  1.1171e-05|    0.039860|
|        8470|  3.9783e+01|  3.9783e+01|   -9.370414|  1.1129e-05|    0.039850|
|        8480|  3.9783e+01|  3.9783e+01|   -9.371870|  1.1088e-05|    0.039839|
|        8490|  3.9783e+01|  3.9783e+01|   -9.373335|  1.1047e-05|    0.039828|
|        8500|  3.9783e+01|  3.9783e+01|   -9.374804|  1.1006e-05|    0.039818|
|        8510|  3.9783e+01|  3.9783e+01|   -9.376275|  1.0965e-05|    0.039807|
|        8520|  3.9783e+01|  3.9783e+01|   -9.377745|  1.0924e-05|    0.039797|
|        8530|  3.9783e+01|  3.9783e+01|   -9.379201|  1.0882e-05|    0.039787|
|        8540|  3.9783e+01|  3.9783e+01|   -9.380658|  1.0842e-05|    0.039776|
|        8550|  3.9783e+01|  3.9783e+01|   -9.382115|  1.0801e-05|    0.039766|
|        8560|  3.9783e+01|  3.9783e+01|   -9.383573|  1.0760e-05|    0.039756|
|        8570|  3.9783e+01|  3.9783e+01|   -9.385031|  1.0719e-05|    0.039745|
|        8580|  3.9783e+01|  3.9783e+01|   -9.386492|  1.0679e-05|    0.039735|
|        8590|  3.9783e+01|  3.9783e+01|   -9.387958|  1.0639e-05|    0.039725|
|        8600|  3.9783e+01|  3.9783e+01|   -9.389433|  1.0599e-05|    0.039715|
+-----------------------------------------------------------------------+
|        File Writing Summary       |              Filename             |
+-----------------------------------------------------------------------+
|SU2 binary restart                 |restart_flow_aoa15.dat             |
|Paraview                           |flow_aoa15.vtu                     |
|Paraview surface                   |surface_flow_aoa15.vtu             |
+-----------------------------------------------------------------------+
+-----------------------------------------------------------------------------+
|  Inner_Iter|     Min CFL|     Max CFL|      rms[P]|  Cauchy[CD]|          CD|
+-----------------------------------------------------------------------------+
|        8610|  3.9783e+01|  3.9783e+01|   -9.390908|  1.0559e-05|    0.039705|
|        8620|  3.9783e+01|  3.9783e+01|   -9.392383|  1.0519e-05|    0.039695|
|        8630|  3.9783e+01|  3.9783e+01|   -9.393852|  1.0479e-05|    0.039685|
|        8640|  3.9783e+01|  3.9783e+01|   -9.395315|  1.0440e-05|    0.039675|
|        8650|  3.9783e+01|  3.9783e+01|   -9.396786|  1.0401e-05|    0.039665|
|        8660|  3.9783e+01|  3.9783e+01|   -9.398256|  1.0363e-05|    0.039655|
|        8670|  3.9783e+01|  3.9783e+01|   -9.399725|  1.0324e-05|    0.039645|
|        8680|  3.9783e+01|  3.9783e+01|   -9.401193|  1.0286e-05|    0.039635|
|        8690|  3.9783e+01|  3.9783e+01|   -9.402660|  1.0248e-05|    0.039625|
|        8700|  3.9783e+01|  3.9783e+01|   -9.404128|  1.0210e-05|    0.039616|
|        8710|  3.9783e+01|  3.9783e+01|   -9.405599|  1.0173e-05|    0.039606|
|        8720|  3.9783e+01|  3.9783e+01|   -9.407074|  1.0135e-05|    0.039596|
|        8730|  3.9783e+01|  3.9783e+01|   -9.408555|  1.0098e-05|    0.039587|
|        8740|  3.9783e+01|  3.9783e+01|   -9.410041|  1.0061e-05|    0.039577|
|        8750|  3.9783e+01|  3.9783e+01|   -9.411524|  1.0024e-05|    0.039567|
|        8760|  3.9783e+01|  3.9783e+01|   -9.412998|  9.9878e-06|    0.039558|
|        8770|  3.9783e+01|  3.9783e+01|   -9.414473|  9.9512e-06|    0.039548|
|        8780|  3.9783e+01|  3.9783e+01|   -9.415947|  9.9146e-06|    0.039539|
|        8790|  3.9783e+01|  3.9783e+01|   -9.417427|  9.8779e-06|    0.039529|
|        8800|  3.9783e+01|  3.9783e+01|   -9.418904|  9.8413e-06|    0.039520|
+-----------------------------------------------------------------------+
|        File Writing Summary       |              Filename             |
+-----------------------------------------------------------------------+
|SU2 binary restart                 |restart_flow_aoa15.dat             |
|Paraview                           |flow_aoa15.vtu                     |
|Paraview surface                   |surface_flow_aoa15.vtu             |
+-----------------------------------------------------------------------+
+-----------------------------------------------------------------------------+
|  Inner_Iter|     Min CFL|     Max CFL|      rms[P]|  Cauchy[CD]|          CD|
+-----------------------------------------------------------------------------+
|        8810|  3.9783e+01|  3.9783e+01|   -9.420394|  9.8047e-06|    0.039511|
|        8820|  3.9783e+01|  3.9783e+01|   -9.421882|  9.7680e-06|    0.039501|
|        8830|  3.9783e+01|  3.9783e+01|   -9.423385|  9.7313e-06|    0.039492|
|        8840|  3.9783e+01|  3.9783e+01|   -9.424889|  9.6947e-06|    0.039483|
|        8850|  3.9783e+01|  3.9783e+01|   -9.426395|  9.6581e-06|    0.039473|
|        8860|  3.9783e+01|  3.9783e+01|   -9.427893|  9.6215e-06|    0.039464|
|        8870|  3.9783e+01|  3.9783e+01|   -9.429385|  9.5851e-06|    0.039455|
|        8880|  3.9783e+01|  3.9783e+01|   -9.430881|  9.5487e-06|    0.039446|
|        8890|  3.9783e+01|  3.9783e+01|   -9.432373|  9.5124e-06|    0.039437|
|        8900|  3.9783e+01|  3.9783e+01|   -9.433866|  9.4762e-06|    0.039428|
|        8910|  3.9783e+01|  3.9783e+01|   -9.435371|  9.4400e-06|    0.039419|
|        8920|  3.9783e+01|  3.9783e+01|   -9.436880|  9.4040e-06|    0.039410|
|        8930|  3.9783e+01|  3.9783e+01|   -9.438383|  9.3681e-06|    0.039401|
|        8940|  3.9783e+01|  3.9783e+01|   -9.439891|  9.3323e-06|    0.039392|
|        8950|  3.9783e+01|  3.9783e+01|   -9.441389|  9.2967e-06|    0.039383|
|        8960|  3.9783e+01|  3.9783e+01|   -9.442879|  9.2612e-06|    0.039374|
|        8970|  3.9783e+01|  3.9783e+01|   -9.444360|  9.2257e-06|    0.039366|
|        8980|  3.9783e+01|  3.9783e+01|   -9.445848|  9.1904e-06|    0.039357|
|        8990|  3.9783e+01|  3.9783e+01|   -9.447333|  9.1553e-06|    0.039348|
|        9000|  3.9783e+01|  3.9783e+01|   -9.448829|  9.1203e-06|    0.039339|
+-----------------------------------------------------------------------+
|        File Writing Summary       |              Filename             |
+-----------------------------------------------------------------------+
|SU2 binary restart                 |restart_flow_aoa15.dat             |
|Paraview                           |flow_aoa15.vtu                     |
|Paraview surface                   |surface_flow_aoa15.vtu             |
+-----------------------------------------------------------------------+
+-----------------------------------------------------------------------------+
|  Inner_Iter|     Min CFL|     Max CFL|      rms[P]|  Cauchy[CD]|          CD|
+-----------------------------------------------------------------------------+
|        9010|  3.9783e+01|  3.9783e+01|   -9.450333|  9.0856e-06|    0.039331|
|        9020|  3.9783e+01|  3.9783e+01|   -9.451850|  9.0513e-06|    0.039322|
|        9030|  3.9783e+01|  3.9783e+01|   -9.453377|  9.0173e-06|    0.039313|
|        9040|  3.9783e+01|  3.9783e+01|   -9.454908|  8.9837e-06|    0.039305|
|        9050|  3.9783e+01|  3.9783e+01|   -9.456430|  8.9504e-06|    0.039296|
|        9060|  3.9783e+01|  3.9783e+01|   -9.457943|  8.9176e-06|    0.039288|
|        9070|  3.9783e+01|  3.9783e+01|   -9.459445|  8.8852e-06|    0.039279|
|        9080|  3.9783e+01|  3.9783e+01|   -9.460931|  8.8531e-06|    0.039271|
|        9090|  3.9783e+01|  3.9783e+01|   -9.462421|  8.8215e-06|    0.039262|
|        9100|  3.9783e+01|  3.9783e+01|   -9.463915|  8.7901e-06|    0.039254|
|        9110|  3.9783e+01|  3.9783e+01|   -9.465402|  8.7588e-06|    0.039245|
|        9120|  3.9783e+01|  3.9783e+01|   -9.466899|  8.7277e-06|    0.039237|
|        9130|  3.9783e+01|  3.9783e+01|   -9.468401|  8.6966e-06|    0.039229|
|        9140|  3.9783e+01|  3.9783e+01|   -9.469905|  8.6655e-06|    0.039220|
|        9150|  3.9783e+01|  3.9783e+01|   -9.471420|  8.6342e-06|    0.039212|
|        9160|  3.9783e+01|  3.9783e+01|   -9.472948|  8.6029e-06|    0.039204|
|        9170|  3.9783e+01|  3.9783e+01|   -9.474477|  8.5715e-06|    0.039196|
|        9180|  3.9783e+01|  3.9783e+01|   -9.476006|  8.5401e-06|    0.039188|
|        9190|  3.9783e+01|  3.9783e+01|   -9.477534|  8.5085e-06|    0.039179|
|        9200|  3.9783e+01|  3.9783e+01|   -9.479063|  8.4770e-06|    0.039171|
+-----------------------------------------------------------------------+
|        File Writing Summary       |              Filename             |
+-----------------------------------------------------------------------+
|SU2 binary restart                 |restart_flow_aoa15.dat             |
|Paraview                           |flow_aoa15.vtu                     |
|Paraview surface                   |surface_flow_aoa15.vtu             |
+-----------------------------------------------------------------------+
+-----------------------------------------------------------------------------+
|  Inner_Iter|     Min CFL|     Max CFL|      rms[P]|  Cauchy[CD]|          CD|
+-----------------------------------------------------------------------------+
|        9210|  3.9783e+01|  3.9783e+01|   -9.480583|  8.4453e-06|    0.039163|
|        9220|  3.9783e+01|  3.9783e+01|   -9.482109|  8.4136e-06|    0.039155|
|        9230|  3.9783e+01|  3.9783e+01|   -9.483629|  8.3818e-06|    0.039147|
|        9240|  3.9783e+01|  3.9783e+01|   -9.485149|  8.3500e-06|    0.039139|
|        9250|  3.9783e+01|  3.9783e+01|   -9.486678|  8.3182e-06|    0.039131|
|        9260|  3.9783e+01|  3.9783e+01|   -9.488211|  8.2863e-06|    0.039123|
|        9270|  3.9783e+01|  3.9783e+01|   -9.489739|  8.2544e-06|    0.039116|
|        9280|  3.9783e+01|  3.9783e+01|   -9.491266|  8.2224e-06|    0.039108|
|        9290|  3.9783e+01|  3.9783e+01|   -9.492786|  8.1903e-06|    0.039100|
|        9300|  3.9783e+01|  3.9783e+01|   -9.494297|  8.1582e-06|    0.039092|
|        9310|  3.9783e+01|  3.9783e+01|   -9.495809|  8.1260e-06|    0.039084|
|        9320|  3.9783e+01|  3.9783e+01|   -9.497321|  8.0938e-06|    0.039077|
|        9330|  3.9783e+01|  3.9783e+01|   -9.498839|  8.0616e-06|    0.039069|
|        9340|  3.9783e+01|  3.9783e+01|   -9.500364|  8.0294e-06|    0.039061|
|        9350|  3.9783e+01|  3.9783e+01|   -9.501898|  7.9972e-06|    0.039054|
|        9360|  3.9783e+01|  3.9783e+01|   -9.503434|  7.9652e-06|    0.039046|
|        9370|  3.9783e+01|  3.9783e+01|   -9.504963|  7.9333e-06|    0.039039|
|        9380|  3.9783e+01|  3.9783e+01|   -9.506488|  7.9018e-06|    0.039031|
|        9390|  3.9783e+01|  3.9783e+01|   -9.508009|  7.8707e-06|    0.039024|
|        9400|  3.9783e+01|  3.9783e+01|   -9.509534|  7.8399e-06|    0.039016|
+-----------------------------------------------------------------------+
|        File Writing Summary       |              Filename             |
+-----------------------------------------------------------------------+
|SU2 binary restart                 |restart_flow_aoa15.dat             |
|Paraview                           |flow_aoa15.vtu                     |
|Paraview surface                   |surface_flow_aoa15.vtu             |
+-----------------------------------------------------------------------+
+-----------------------------------------------------------------------------+
|  Inner_Iter|     Min CFL|     Max CFL|      rms[P]|  Cauchy[CD]|          CD|
+-----------------------------------------------------------------------------+
|        9410|  3.9783e+01|  3.9783e+01|   -9.511061|  7.8096e-06|    0.039009|
|        9420|  3.9783e+01|  3.9783e+01|   -9.512592|  7.7796e-06|    0.039001|
|        9430|  3.9783e+01|  3.9783e+01|   -9.514127|  7.7499e-06|    0.038994|
|        9440|  3.9783e+01|  3.9783e+01|   -9.515668|  7.7205e-06|    0.038986|
|        9450|  3.9783e+01|  3.9783e+01|   -9.517196|  7.6914e-06|    0.038979|
|        9460|  3.9783e+01|  3.9783e+01|   -9.518734|  7.6625e-06|    0.038972|
|        9470|  3.9783e+01|  3.9783e+01|   -9.520276|  7.6339e-06|    0.038964|
|        9480|  3.9783e+01|  3.9783e+01|   -9.521815|  7.6054e-06|    0.038957|
|        9490|  3.9783e+01|  3.9783e+01|   -9.523354|  7.5772e-06|    0.038950|
|        9500|  3.9783e+01|  3.9783e+01|   -9.524890|  7.5491e-06|    0.038943|
|        9510|  3.9783e+01|  3.9783e+01|   -9.526433|  7.5212e-06|    0.038935|
|        9520|  3.9783e+01|  3.9783e+01|   -9.527967|  7.4933e-06|    0.038928|
|        9530|  3.9783e+01|  3.9783e+01|   -9.529512|  7.4656e-06|    0.038921|
|        9540|  3.9783e+01|  3.9783e+01|   -9.531066|  7.4380e-06|    0.038914|
|        9550|  3.9783e+01|  3.9783e+01|   -9.532623|  7.4105e-06|    0.038907|
|        9560|  3.9783e+01|  3.9783e+01|   -9.534185|  7.3832e-06|    0.038900|
|        9570|  3.9783e+01|  3.9783e+01|   -9.535748|  7.3560e-06|    0.038893|
|        9580|  3.9783e+01|  3.9783e+01|   -9.537316|  7.3289e-06|    0.038886|
|        9590|  3.9783e+01|  3.9783e+01|   -9.538892|  7.3019e-06|    0.038879|
|        9600|  3.9783e+01|  3.9783e+01|   -9.540466|  7.2749e-06|    0.038872|
+-----------------------------------------------------------------------+
|        File Writing Summary       |              Filename             |
+-----------------------------------------------------------------------+
|SU2 binary restart                 |restart_flow_aoa15.dat             |
|Paraview                           |flow_aoa15.vtu                     |
|Paraview surface                   |surface_flow_aoa15.vtu             |
+-----------------------------------------------------------------------+
+-----------------------------------------------------------------------------+
|  Inner_Iter|     Min CFL|     Max CFL|      rms[P]|  Cauchy[CD]|          CD|
+-----------------------------------------------------------------------------+
|        9610|  3.9783e+01|  3.9783e+01|   -9.542038|  7.2480e-06|    0.038865|
|        9620|  3.9783e+01|  3.9783e+01|   -9.543607|  7.2212e-06|    0.038858|
|        9630|  3.9783e+01|  3.9783e+01|   -9.545172|  7.1944e-06|    0.038851|
|        9640|  3.9783e+01|  3.9783e+01|   -9.546741|  7.1676e-06|    0.038844|
|        9650|  3.9783e+01|  3.9783e+01|   -9.548316|  7.1409e-06|    0.038838|
|        9660|  3.9783e+01|  3.9783e+01|   -9.549889|  7.1143e-06|    0.038831|
|        9670|  3.9783e+01|  3.9783e+01|   -9.551463|  7.0877e-06|    0.038824|
|        9680|  3.9783e+01|  3.9783e+01|   -9.553030|  7.0611e-06|    0.038817|
|        9690|  3.9783e+01|  3.9783e+01|   -9.554599|  7.0346e-06|    0.038811|
|        9700|  3.9783e+01|  3.9783e+01|   -9.556168|  7.0082e-06|    0.038804|
|        9710|  3.9783e+01|  3.9783e+01|   -9.557739|  6.9818e-06|    0.038797|
|        9720|  3.9783e+01|  3.9783e+01|   -9.559308|  6.9555e-06|    0.038791|
|        9730|  3.9783e+01|  3.9783e+01|   -9.560877|  6.9294e-06|    0.038784|
|        9740|  3.9783e+01|  3.9783e+01|   -9.562447|  6.9034e-06|    0.038777|
|        9750|  3.9783e+01|  3.9783e+01|   -9.564016|  6.8775e-06|    0.038771|
|        9760|  3.9783e+01|  3.9783e+01|   -9.565579|  6.8517e-06|    0.038764|
|        9770|  3.9783e+01|  3.9783e+01|   -9.567141|  6.8260e-06|    0.038758|
|        9780|  3.9783e+01|  3.9783e+01|   -9.568700|  6.8004e-06|    0.038751|
|        9790|  3.9783e+01|  3.9783e+01|   -9.570254|  6.7748e-06|    0.038745|
|        9800|  3.9783e+01|  3.9783e+01|   -9.571810|  6.7493e-06|    0.038738|
+-----------------------------------------------------------------------+
|        File Writing Summary       |              Filename             |
+-----------------------------------------------------------------------+
|SU2 binary restart                 |restart_flow_aoa15.dat             |
|Paraview                           |flow_aoa15.vtu                     |
|Paraview surface                   |surface_flow_aoa15.vtu             |
+-----------------------------------------------------------------------+
+-----------------------------------------------------------------------------+
|  Inner_Iter|     Min CFL|     Max CFL|      rms[P]|  Cauchy[CD]|          CD|
+-----------------------------------------------------------------------------+
|        9810|  3.9783e+01|  3.9783e+01|   -9.573362|  6.7238e-06|    0.038732|
|        9820|  3.9783e+01|  3.9783e+01|   -9.574923|  6.6983e-06|    0.038725|
|        9830|  3.9783e+01|  3.9783e+01|   -9.576479|  6.6729e-06|    0.038719|
|        9840|  3.9783e+01|  3.9783e+01|   -9.578037|  6.6476e-06|    0.038713|
|        9850|  3.9783e+01|  3.9783e+01|   -9.579598|  6.6224e-06|    0.038706|
|        9860|  3.9783e+01|  3.9783e+01|   -9.581156|  6.5972e-06|    0.038700|
|        9870|  3.9783e+01|  3.9783e+01|   -9.582712|  6.5721e-06|    0.038694|
|        9880|  3.9783e+01|  3.9783e+01|   -9.584263|  6.5469e-06|    0.038688|
|        9890|  3.9783e+01|  3.9783e+01|   -9.585806|  6.5216e-06|    0.038681|
|        9900|  3.9783e+01|  3.9783e+01|   -9.587344|  6.4964e-06|    0.038675|
|        9910|  3.9783e+01|  3.9783e+01|   -9.588882|  6.4711e-06|    0.038669|
|        9920|  3.9783e+01|  3.9783e+01|   -9.590422|  6.4458e-06|    0.038663|
|        9930|  3.9783e+01|  3.9783e+01|   -9.591975|  6.4205e-06|    0.038657|
|        9940|  3.9783e+01|  3.9783e+01|   -9.593533|  6.3952e-06|    0.038651|
|        9950|  3.9783e+01|  3.9783e+01|   -9.595094|  6.3700e-06|    0.038645|
|        9960|  3.9783e+01|  3.9783e+01|   -9.596658|  6.3448e-06|    0.038639|
|        9970|  3.9783e+01|  3.9783e+01|   -9.598222|  6.3196e-06|    0.038633|
|        9980|  3.9783e+01|  3.9783e+01|   -9.599789|  6.2944e-06|    0.038627|
|        9990|  3.9783e+01|  3.9783e+01|   -9.601351|  6.2693e-06|    0.038621|
|        9998|  3.9783e+01|  3.9783e+01|   -9.602605|  6.2492e-06|    0.038616|

----------------------------- Solver Exit -------------------------------

Maximum number of iterations reached (ITER = 9999) before convergence.
+-----------------------------------------------------------------------+
|      Convergence Field     |     Value    |   Criterion  |  Converged |
+-----------------------------------------------------------------------+
|                      rms[P]|      -9.60261|          < -9|         Yes|
|                  Cauchy[CD]|   6.24922e-06|       < 1e-06|          No|
+-----------------------------------------------------------------------+
-------------------------------------------------------------------------
+-----------------------------------------------------------------------+
|        File Writing Summary       |              Filename             |
+-----------------------------------------------------------------------+
|SU2 binary restart                 |restart_flow_aoa15.dat             |
|Paraview                           |flow_aoa15.vtu                     |
|Paraview surface                   |surface_flow_aoa15.vtu             |
+-----------------------------------------------------------------------+

------------------------- Solver Postprocessing -------------------------
Deleted CNumerics container.
Deleted CIntegration container.
Deleted CSolver container.
Deleted CIteration container.
Deleted CInterface container.
Deleted CGeometry container.
Deleted CFreeFormDefBox class.
Deleted CSurfaceMovement class.
Deleted CVolumetricMovement class.
Deleted CConfig container.
Deleted nInst container.
Deleted COutput class.
-------------------------------------------------------------------------

------------------------- Exit Success (SU2_CFD) ------------------------

