
-------------------------------------------------------------------------
|    ___ _   _ ___                                                      |
|   / __| | | |_  )   Release 7.4.0 "Blackbird"                         |
|   \__ \ |_| |/ /                                                      |
|   |___/\___//___|   Suite (Computational Fluid Dynamics Code)         |
|                                                                       |
-------------------------------------------------------------------------
| SU2 Project Website: https://su2code.github.io                        |
|                                                                       |
| The SU2 Project is maintained by the SU2 Foundation                   |
| (http://su2foundation.org)                                            |
-------------------------------------------------------------------------
| Copyright 2012-2022, SU2 Contributors                                 |
|                                                                       |
| SU2 is free software; you can redistribute it and/or                  |
| modify it under the terms of the GNU Lesser General Public            |
| License as published by the Free Software Foundation; either          |
| version 2.1 of the License, or (at your option) any later version.    |
|                                                                       |
| SU2 is distributed in the hope that it will be useful,                |
| but WITHOUT ANY WARRANTY; without even the implied warranty of        |
| MERCHANTABILITY or FITNESS FOR A PARTICULAR PURPOSE. See the GNU      |
| Lesser General Public License for more details.                       |
|                                                                       |
| You should have received a copy of the GNU Lesser General Public      |
| License along with SU2. If not, see <http://www.gnu.org/licenses/>.   |
-------------------------------------------------------------------------

Parsing config file for zone 0

----------------- Physical Case Definition ( Zone 0 ) -------------------
Incompressible RANS equations.
Turbulence model: Spalart-Allmaras-noft2
Hybrid RANS/LES: No Hybrid RANS/LES
Reading and writing binary SU2 native restart files.
Read flow solution from: ../../../O1/caseG8/cfdG8/restart_flow_G8.dat.
Non-Dimensional simulation using intialization values.
The reference area is 1 m^2.
The semi-span will be computed using the max y(3D) value.
The reference length is 1.00898 m.
Reference origin for moment evaluation is (-0.756, 0, 0).
Surface(s) where the force coefficients are evaluated: AIRFOIL.

Surface(s) plotted in the output file: AIRFOIL.
Input mesh file name: ../meshG8/meshG8.su2

--------------- Space Numerical Integration ( Zone 0 ) ------------------
Flux difference splitting (FDS) upwind scheme for the flow inviscid terms.
Second order integration in space, with slope limiter.
Venkatakrishnan slope-limiting method, with constant: 0.04.
The reference element size is: 1. 
Average of gradients with correction (viscous flow terms).
Average of gradients with correction (viscous turbulence terms).
Gradient for upwind reconstruction: unweighted Least-Squares.
Gradient for viscous and source terms: Green-Gauss.

--------------- Time Numerical Integration  ( Zone 0 ) ------------------
Local time stepping (steady state simulation).
Euler implicit method for the flow equations.
FGMRES is used for solving the linear system.
Using a ILU(0) preconditioning.
Convergence criteria of the linear solver: 1e-06.
Max number of linear iterations: 10.
CFL adaptation. Factor down: 0.1, factor up: 1.2,
                lower limit: 1, upper limit: 1000,
                acceptable linear residual: 0.001.
Courant-Friedrichs-Lewy number:        2
Euler implicit time integration for the turbulence model.

------------------ Convergence Criteria  ( Zone 0 ) ---------------------
Maximum number of solver subiterations: 20000.
Begin convergence monitoring at iteration 10.
Residual minimum value: 1e-9.
Cauchy series min. value: 1e-06.
Number of Cauchy elements: 250.
Begin windowed time average at iteration 0.

-------------------- Output Information ( Zone 0 ) ----------------------
File writing frequency: 
+------------------------------------+
|                     File| Frequency|
+------------------------------------+
|                  RESTART|       200|
|                 PARAVIEW|       200|
|         SURFACE_PARAVIEW|       200|
+------------------------------------+
Writing the convergence history file every 1 inner iterations.
Writing the screen convergence history every 10 inner iterations.
The tabular file format is CSV (.csv).
Convergence history file name: history_G8.
Forces breakdown file name: forces_breakdown.dat.
Surface file name: surface_flow_G8.
Volume file name: flow_G8.
Restart file name: restart_flow_G8.dat.

------------- Config File Boundary Information ( Zone 0 ) ---------------
+-----------------------------------------------------------------------+
|                        Marker Type|                        Marker Name|
+-----------------------------------------------------------------------+
|                          Far-field|                           FARFIELD|
+-----------------------------------------------------------------------+
|                     Heat flux wall|                            AIRFOIL|
+-----------------------------------------------------------------------+

-------------------- Output Preprocessing ( Zone 0 ) --------------------

WARNING: SURFACE_PRESSURE_DROP can only be computed for at least 2 surfaces (outlet, inlet, ...)

Screen output fields: INNER_ITER, MIN_CFL, MAX_CFL, RMS_PRESSURE, CAUCHY_DRAG, DRAG
History output group(s): INNER_ITER, MIN_CFL, MAX_CFL, RMS_RES, LIFT, DRAG, MOMENT_Z, CAUCHY
Convergence field(s): RMS_PRESSURE, DRAG
Warning: No (valid) fields chosen for time convergence monitoring. Time convergence monitoring inactive.
Volume output fields: COORDINATES, SOLUTION, PRIMITIVE, RESIDUAL, MESH_QUALITY

------------------- Geometry Preprocessing ( Zone 0 ) -------------------
Two dimensional problem.
545880 grid points before partitioning.
544214 volume elements before partitioning.
2 surface markers.
988 boundary elements in index 0 (Marker = AIRFOIL).
2344 boundary elements in index 1 (Marker = FARFIELD).
Executing the partitioning functions.
Building the graph adjacency structure.
Calling ParMETIS... graph partitioning complete (5072 edge cuts).
Distributing ParMETIS coloring.
Rebalancing vertices.
Rebalancing volume element connectivity.
Rebalancing markers and surface elements.
556047 vertices including ghost points. 
549286 interior elements including halo cells. 
549286 quadrilaterals.
Establishing MPI communication patterns.
Setting point connectivity.
Renumbering points (Reverse Cuthill McKee Ordering).
Recomputing point connectivity.
Setting element connectivity.
Checking the numerical grid orientation.
All volume elements are correctly orientend.
There has been a re-orientation of 1673 LINE surface elements.
Identifying edges and vertices.
Setting the control volume structure.
Area of the computational grid: 3236.51.
Searching for the closest normal neighbors to the surfaces.
Storing a mapping from global to local point index.
Compute the surface curvature.
Max K: 8710.21. Mean K: 4.32336. Standard deviation K: 151.528.
Checking for periodicity.
Computing mesh quality statistics for the dual control volumes.
+--------------------------------------------------------------+
|           Mesh Quality Metric|        Minimum|        Maximum|
+--------------------------------------------------------------+
|    Orthogonality Angle (deg.)|        76.3669|             90|
|     CV Face Area Aspect Ratio|        1.00001|        82403.8|
|           CV Sub-Volume Ratio|              1|        49.0466|
+--------------------------------------------------------------+
Finding max control volume width.
Communicating number of neighbors.
Wetted area = 2.05981 m.
Area projection in the x-plane = 0.121118 m, y-plane = 1.00886 m.
Max. coordinate in the x-direction = 1.00898 m, y-direction = 0.0759841 m.
Min. coordinate in the x-direction = 3.50822e-07 m, y-direction = -0.0451346 m.
Computing wall distances.

-------------------- Solver Preprocessing ( Zone 0 ) --------------------
 Warning: There is no restart file (flow.meta).
 Computation will continue without updating metadata parameters.
Incompressible flow: rho_ref, vel_ref, and temp_ref
are based on the initial values, p_ref = rho_ref*vel_ref^2.
Force coefficients computed using initial values.
The reference area for force coeffs. is 1 m^2.
The reference length for force coeffs. is 1.00898 m.
The pressure is decomposed into thermodynamic and dynamic components.
The initial value of the dynamic pressure is 0.
Mach number: 0.0276747, computed using the Bulk modulus.
For external flows, the initial state is imposed at the far-field.
Angle of attack (deg): 14, computed using the initial velocity.
Side slip angle (deg): 0, computed using the initial velocity.
Reynolds number per meter: 594999, computed using initial values.
Reynolds number is a byproduct of inputs only (not used internally).
SI units only. The grid should be dimensional (meters).
No energy equation.

-- Models:
+------------------------------------------------------------------------------+
|          Viscosity Model|        Conductivity Model|              Fluid Model|
+------------------------------------------------------------------------------+
|       CONSTANT_VISCOSITY|          CONSTANT_PRANDTL|         CONSTANT_DENSITY|
+------------------------------------------------------------------------------+
-- Fluid properties:
+------------------------------------------------------------------------------+
|                  Name|    Dim. value|    Ref. value|      Unit|Non-dim. value|
+------------------------------------------------------------------------------+
|             Viscosity|      1.92e-05|        11.424|   N.s/m^2|   1.68067e-06|
+------------------------------------------------------------------------------+
|        Prandtl (Lam.)|             -|             -|         -|          0.72|
|       Prandtl (Turb.)|             -|             -|         -|           0.9|
+------------------------------------------------------------------------------+
|          Bulk Modulus|        142000|             1|        Pa|        142000|
+------------------------------------------------------------------------------+
-- Initial and free-stream conditions:
+------------------------------------------------------------------------------+
|                  Name|    Dim. value|    Ref. value|      Unit|Non-dim. value|
+------------------------------------------------------------------------------+
|      Dynamic Pressure|             0|       108.756|        Pa|             0|
|        Total Pressure|       54.3781|       108.756|        Pa|           0.5|
|               Density|           1.2|           1.2|    kg/m^3|             1|
|            Velocity-X|        9.2372|       9.51999|       m/s|      0.970296|
|            Velocity-Y|        2.3031|       9.51999|       m/s|      0.241923|
|    Velocity Magnitude|       9.51999|       9.51999|       m/s|             1|
+------------------------------------------------------------------------------+
|             Viscosity|      1.92e-05|        11.424|   N.s/m^2|   1.68067e-06|
|          Conductivity|             -|       3.59312|   W/m^2.K|             -|
|     Turb. Kin. Energy|       1.35945|       90.6301|   m^2/s^2|         0.015|
|     Spec. Dissipation|       8496.58|       9.51999|       1/s|       892.499|
+------------------------------------------------------------------------------+
|           Mach Number|             -|             -|         -|     0.0276747|
|       Reynolds Number|             -|             -|         -|        594999|
+------------------------------------------------------------------------------+
Initialize Jacobian structure (Navier-Stokes). MG level: 0.
Initialize Jacobian structure (SA model).

------------------- Numerics Preprocessing ( Zone 0 ) -------------------

----------------- Integration Preprocessing ( Zone 0 ) ------------------

------------------- Iteration Preprocessing ( Zone 0 ) ------------------
Euler/Navier-Stokes/RANS fluid iteration.

------------------------------ Begin Solver -----------------------------

Simulation Run using the Single-zone Driver
+-----------------------------------------------------------------------------+
|  Inner_Iter|     Min CFL|     Max CFL|      rms[P]|  Cauchy[CD]|          CD|
+-----------------------------------------------------------------------------+
|           0|  2.4000e+00|  2.4000e+00|   -6.010734|  1.0000e+00|    0.094890|
|          10|  1.4860e+01|  1.4860e+01|   -6.160933|  5.7798e-04|    0.109912|
|          20|  7.6675e+00|  7.6675e+00|   -6.285971|  3.4202e-03|    0.232139|
|          30|  3.9563e+01|  3.9563e+01|   -6.292164|  4.2471e-03|    0.286125|
|          40|  1.4176e+01|  1.4176e+01|   -6.315580|  4.6713e-03|    0.257572|
|          50|  7.3145e+00|  7.3145e+00|   -6.306941|  5.6731e-03|    0.201372|
|          60|  4.5290e+01|  4.5290e+01|   -6.310003|  6.5496e-03|    0.162231|
|          70|  2.3368e+01|  2.3368e+01|   -6.321208|  7.1912e-03|    0.138479|
|          80|  1.2058e+01|  1.2058e+01|   -6.311755|  8.1435e-03|    0.109600|
|          90|  6.2215e+00|  6.2215e+00|   -6.295369|  9.0035e-03|    0.087754|
|         100|  3.8522e+01|  3.8522e+01|   -6.284046|  9.4899e-03|    0.075594|
|         110|  1.9876e+01|  1.9876e+01|   -6.263795|  9.8153e-03|    0.067459|
|         120|  1.0256e+01|  1.0256e+01|   -6.235238|  1.0132e-02|    0.059534|
|         130|  5.2917e+00|  5.2917e+00|   -6.229173|  1.0477e-02|    0.050906|
|         140|  3.2765e+01|  3.2765e+01|   -6.228951|  1.0766e-02|    0.043695|
|         150|  3.9318e+01|  3.9318e+01|   -6.235719|  1.1793e-02|    0.018005|
|         160|  2.0287e+01|  2.0287e+01|   -6.226992|  1.2202e-02|    0.007795|
|         170|  6.0577e+00|  6.0577e+00|   -6.229396|  1.2803e-02|   -0.007241|
|         180|  3.7508e+01|  3.7508e+01|   -6.235061|  1.2939e-02|   -0.010642|
|         190|  1.9353e+01|  1.9353e+01|   -6.244086|  1.2986e-02|   -0.009897|
|         200|  9.9859e+00|  9.9859e+00|   -6.240929|  1.3377e-02|   -0.000110|
+-----------------------------------------------------------------------+
|        File Writing Summary       |              Filename             |
+-----------------------------------------------------------------------+
|SU2 binary restart                 |restart_flow_G8.dat                |
|Paraview                           |flow_G8.vtu                        |
|Paraview surface                   |surface_flow_G8.vtu                |
+-----------------------------------------------------------------------+
+-----------------------------------------------------------------------------+
|  Inner_Iter|     Min CFL|     Max CFL|      rms[P]|  Cauchy[CD]|          CD|
+-----------------------------------------------------------------------------+
|         210|  4.2937e+01|  4.2937e+01|   -6.232281|  1.4326e-02|    0.023604|
|         220|  1.5385e+01|  1.5385e+01|   -6.242101|  1.5544e-02|    0.054055|
|         230|  4.5940e+01|  4.5940e+01|   -6.248492|  1.7388e-02|    0.100178|
|         240|  1.9753e+01|  1.9753e+01|   -6.239027|  1.8045e-02|    0.118368|
|         250|  1.0192e+01|  1.0192e+01|   -6.226159|  1.8501e-02|    0.132805|
|         260|  4.3825e+01|  4.3825e+01|   -6.222234|  1.8063e-02|    0.133405|
|         270|  2.2613e+01|  2.2613e+01|   -6.226058|  1.5411e-02|    0.127233|
|         280|  1.1668e+01|  1.1668e+01|   -6.233261|  1.5132e-02|    0.111113|
|         290|  6.0203e+00|  6.0203e+00|   -6.245957|  1.5710e-02|    0.085590|
|         300|  3.7276e+01|  3.7276e+01|   -6.254939|  1.5364e-02|    0.069186|
|         310|  6.4413e+00|  6.4413e+00|   -6.297119|  1.5747e-02|    0.037697|
|         320|  3.9883e+01|  3.9883e+01|   -6.299735|  1.5360e-02|    0.031349|
|         330|  2.0579e+01|  2.0579e+01|   -6.292110|  1.4501e-02|    0.029020|
|         340|  1.0618e+01|  1.0618e+01|   -6.263454|  1.3724e-02|    0.031013|
|         350|  4.5656e+01|  4.5656e+01|   -6.233308|  1.3501e-02|    0.037595|
|         360|  1.3633e+01|  1.3633e+01|   -6.221367|  1.3486e-02|    0.045338|
|         370|  4.8849e+01|  4.8849e+01|   -6.238236|  1.3429e-02|    0.051841|
|         380|  1.4586e+01|  1.4586e+01|   -6.291582|  1.3209e-02|    0.054978|
|         390|  7.5261e+00|  7.5261e+00|   -6.333079|  1.2990e-02|    0.056703|
|         400|  4.6600e+01|  4.6600e+01|   -6.351854|  1.2022e-02|    0.058193|
+-----------------------------------------------------------------------+
|        File Writing Summary       |              Filename             |
+-----------------------------------------------------------------------+
|SU2 binary restart                 |restart_flow_G8.dat                |
|Paraview                           |flow_G8.vtu                        |
|Paraview surface                   |surface_flow_G8.vtu                |
+-----------------------------------------------------------------------+
+-----------------------------------------------------------------------------+
|  Inner_Iter|     Min CFL|     Max CFL|      rms[P]|  Cauchy[CD]|          CD|
+-----------------------------------------------------------------------------+
|         410|  2.4045e+01|  2.4045e+01|   -6.359452|  1.1693e-02|    0.060188|
|         420|  4.9859e+01|  4.9859e+01|   -6.331428|  1.1313e-02|    0.065726|
|         430|  4.9859e+01|  4.9859e+01|   -6.319283|  1.1304e-02|    0.068753|
|         440|  4.9859e+01|  4.9859e+01|   -6.377809|  1.1506e-02|    0.062550|
|         450|  4.9859e+01|  4.9859e+01|   -6.455110|  1.1585e-02|    0.050789|
|         460|  5.9830e+01|  5.9830e+01|   -6.475888|  1.0915e-02|    0.043831|
|         470|  3.0871e+01|  3.0871e+01|   -6.476916|  9.7102e-03|    0.043841|
|         480|  1.5929e+01|  1.5929e+01|   -6.477161|  7.9417e-03|    0.045743|
|         490|  8.2189e+00|  8.2189e+00|   -6.474470|  7.4718e-03|    0.050403|
|         500|  5.0890e+01|  5.0890e+01|   -6.473673|  7.1987e-03|    0.054990|
|         510|  8.7937e+00|  8.7937e+00|   -6.523760|  7.4240e-03|    0.064133|
|         520|  5.4448e+01|  5.4448e+01|   -6.561873|  7.3814e-03|    0.067821|
|         530|  7.8406e+00|  7.8406e+00|   -6.638027|  6.9359e-03|    0.069906|
|         540|  4.8547e+01|  4.8547e+01|   -6.635109|  6.0060e-03|    0.068102|
|         550|  2.5049e+01|  2.5049e+01|   -6.624351|  5.4974e-03|    0.064412|
|         560|  5.1942e+01|  5.1942e+01|   -6.624382|  4.7428e-03|    0.051788|
|         570|  7.4796e+00|  7.4796e+00|   -6.692312|  5.0292e-03|    0.038280|
|         580|  4.6312e+01|  4.6312e+01|   -6.711837|  5.0795e-03|    0.034694|
|         590|  1.3829e+01|  1.3829e+01|   -6.735796|  5.0914e-03|    0.032299|
|         600|  7.1353e+00|  7.1353e+00|   -6.732435|  4.8773e-03|    0.033425|
+-----------------------------------------------------------------------+
|        File Writing Summary       |              Filename             |
+-----------------------------------------------------------------------+
|SU2 binary restart                 |restart_flow_G8.dat                |
|Paraview                           |flow_G8.vtu                        |
|Paraview surface                   |surface_flow_G8.vtu                |
+-----------------------------------------------------------------------+
+-----------------------------------------------------------------------------+
|  Inner_Iter|     Min CFL|     Max CFL|      rms[P]|  Cauchy[CD]|          CD|
+-----------------------------------------------------------------------------+
|         610|  4.4180e+01|  4.4180e+01|   -6.728056|  4.6515e-03|    0.035524|
|         620|  2.2796e+01|  2.2796e+01|   -6.727515|  4.5097e-03|    0.038480|
|         630|  1.1762e+01|  1.1762e+01|   -6.735848|  4.5865e-03|    0.043537|
|         640|  6.0690e+00|  6.0690e+00|   -6.756621|  4.7786e-03|    0.050066|
|         650|  3.7578e+01|  3.7578e+01|   -6.779086|  4.8471e-03|    0.053269|
|         660|  1.9389e+01|  1.9389e+01|   -6.812972|  4.9452e-03|    0.057716|
|         670|  1.0004e+01|  1.0004e+01|   -6.819566|  4.8437e-03|    0.060717|
|         680|  6.1945e+01|  6.1945e+01|   -6.807099|  4.7376e-03|    0.060835|
|         690|  3.1962e+01|  3.1962e+01|   -6.790519|  4.5299e-03|    0.059823|
|         700|  1.6492e+01|  1.6492e+01|   -6.778079|  4.1704e-03|    0.057051|
|         710|  5.9093e+01|  5.9093e+01|   -6.788230|  4.0868e-03|    0.052182|
|         720|  5.9093e+01|  5.9093e+01|   -6.871236|  4.3790e-03|    0.044543|
|         730|  5.9093e+00|  5.9093e+00|   -6.892669|  4.5478e-03|    0.038420|
|         740|  3.6589e+01|  3.6589e+01|   -6.872403|  4.4006e-03|    0.037439|
|         750|  1.8879e+01|  1.8879e+01|   -6.849262|  4.2456e-03|    0.036728|
|         760|  9.7411e+00|  9.7411e+00|   -6.853194|  3.9137e-03|    0.037557|
|         770|  6.0314e+01|  6.0314e+01|   -6.877198|  3.8369e-03|    0.039326|
|         780|  1.8010e+01|  1.8010e+01|   -6.957203|  3.8821e-03|    0.043007|
|         790|  6.4532e+01|  6.4532e+01|   -6.985335|  3.9842e-03|    0.047362|
|         800|  2.3123e+01|  2.3123e+01|   -6.953983|  3.9200e-03|    0.049448|
+-----------------------------------------------------------------------+
|        File Writing Summary       |              Filename             |
+-----------------------------------------------------------------------+
|SU2 binary restart                 |restart_flow_G8.dat                |
|Paraview                           |flow_G8.vtu                        |
|Paraview surface                   |surface_flow_G8.vtu                |
+-----------------------------------------------------------------------+
+-----------------------------------------------------------------------------+
|  Inner_Iter|     Min CFL|     Max CFL|      rms[P]|  Cauchy[CD]|          CD|
+-----------------------------------------------------------------------------+
|         810|  1.1931e+01|  1.1931e+01|   -6.923234|  3.4643e-03|    0.050680|
|         820|  6.1561e+00|  6.1561e+00|   -6.928937|  2.9386e-03|    0.050529|
|         830|  3.8117e+01|  3.8117e+01|   -6.950727|  2.8161e-03|    0.050006|
|         840|  1.9668e+01|  1.9668e+01|   -7.000327|  2.7782e-03|    0.048558|
|         850|  1.0148e+01|  1.0148e+01|   -7.035713|  2.8213e-03|    0.046252|
|         860|  6.2834e+01|  6.2834e+01|   -7.030215|  2.8077e-03|    0.044491|
|         870|  2.7018e+01|  2.7018e+01|   -7.017897|  2.7411e-03|    0.043200|
|         880|  1.3940e+01|  1.3940e+01|   -7.021612|  2.5872e-03|    0.041992|
|         890|  7.1930e+00|  7.1930e+00|   -7.050607|  2.3507e-03|    0.041376|
|         900|  4.4537e+01|  4.4537e+01|   -7.071597|  2.2290e-03|    0.041214|
|         910|  2.2980e+01|  2.2980e+01|   -7.109451|  2.0526e-03|    0.041191|
|         920|  1.1857e+01|  1.1857e+01|   -7.137295|  1.9375e-03|    0.041317|
|         930|  7.3417e+01|  7.3417e+01|   -7.145655|  1.9244e-03|    0.041511|
|         940|  3.7881e+01|  3.7881e+01|   -7.148220|  1.8919e-03|    0.041709|
|         950|  1.9546e+01|  1.9546e+01|   -7.163908|  1.8005e-03|    0.042196|
|         960|  1.0085e+01|  1.0085e+01|   -7.199056|  1.6358e-03|    0.042948|
|         970|  6.2446e+01|  6.2446e+01|   -7.239212|  1.3584e-03|    0.043652|
|         980|  3.2221e+01|  3.2221e+01|   -7.264203|  1.1405e-03|    0.044327|
|         990|  1.6625e+01|  1.6625e+01|   -7.236897|  1.1225e-03|    0.044858|
|        1000|  8.5782e+00|  8.5782e+00|   -7.196190|  1.1017e-03|    0.044977|
+-----------------------------------------------------------------------+
|        File Writing Summary       |              Filename             |
+-----------------------------------------------------------------------+
|SU2 binary restart                 |restart_flow_G8.dat                |
|Paraview                           |flow_G8.vtu                        |
|Paraview surface                   |surface_flow_G8.vtu                |
+-----------------------------------------------------------------------+
+-----------------------------------------------------------------------------+
|  Inner_Iter|     Min CFL|     Max CFL|      rms[P]|  Cauchy[CD]|          CD|
+-----------------------------------------------------------------------------+
|        1010|  5.3114e+01|  5.3114e+01|   -7.198217|  1.0773e-03|    0.044741|
|        1020|  6.3737e+01|  6.3737e+01|   -7.309244|  1.0625e-03|    0.043343|
|        1030|  6.3737e+01|  6.3737e+01|   -7.329007|  9.5147e-04|    0.042437|
|        1040|  2.2838e+01|  2.2838e+01|   -7.287120|  7.7906e-04|    0.042403|
|        1050|  1.1784e+01|  1.1784e+01|   -7.262845|  7.0024e-04|    0.042519|
|        1060|  7.2963e+01|  7.2963e+01|   -7.285550|  6.5559e-04|    0.042634|
|        1070|  3.7647e+01|  3.7647e+01|   -7.322802|  6.4188e-04|    0.042650|
|        1080|  6.5054e+01|  6.5054e+01|   -7.388027|  6.3297e-04|    0.042349|
|        1090|  1.6188e+01|  1.6188e+01|   -7.408587|  5.8628e-04|    0.042068|
|        1100|  8.3525e+00|  8.3525e+00|   -7.410139|  4.9670e-04|    0.042011|
|        1110|  5.1716e+01|  5.1716e+01|   -7.431339|  4.2867e-04|    0.042071|
|        1120|  2.6684e+01|  2.6684e+01|   -7.464297|  3.8428e-04|    0.042251|
|        1130|  1.3769e+01|  1.3769e+01|   -7.456910|  3.4858e-04|    0.042567|
|        1140|  7.1043e+00|  7.1043e+00|   -7.463181|  3.3465e-04|    0.042835|
|        1150|  4.3988e+01|  4.3988e+01|   -7.464486|  3.3220e-04|    0.042936|
|        1160|  2.2697e+01|  2.2697e+01|   -7.458632|  3.3442e-04|    0.043027|
|        1170|  1.1711e+01|  1.1711e+01|   -7.436358|  3.3024e-04|    0.043042|
|        1180|  7.2512e+01|  7.2512e+01|   -7.428034|  3.2416e-04|    0.043000|
|        1190|  3.7414e+01|  3.7414e+01|   -7.421385|  3.1847e-04|    0.042944|
|        1200|  1.9305e+01|  1.9305e+01|   -7.428350|  3.0291e-04|    0.042846|
+-----------------------------------------------------------------------+
|        File Writing Summary       |              Filename             |
+-----------------------------------------------------------------------+
|SU2 binary restart                 |restart_flow_G8.dat                |
|Paraview                           |flow_G8.vtu                        |
|Paraview surface                   |surface_flow_G8.vtu                |
+-----------------------------------------------------------------------+
+-----------------------------------------------------------------------------+
|  Inner_Iter|     Min CFL|     Max CFL|      rms[P]|  Cauchy[CD]|          CD|
+-----------------------------------------------------------------------------+
|        1210|  9.9610e+00|  9.9610e+00|   -7.460918|  2.8013e-04|    0.042664|
|        1220|  6.1676e+01|  6.1676e+01|   -7.533007|  2.5954e-04|    0.042474|
|        1230|  3.1823e+01|  3.1823e+01|   -7.603975|  2.4178e-04|    0.042243|
|        1240|  7.9186e+01|  7.9186e+01|   -7.517562|  2.4233e-04|    0.041699|
|        1250|  4.0858e+01|  4.0858e+01|   -7.441222|  2.4210e-04|    0.041513|
|        1260|  7.0603e+01|  7.0603e+01|   -7.361302|  2.3988e-04|    0.041383|
|        1270|  7.0603e+01|  7.0603e+01|   -7.507611|  2.0275e-04|    0.041853|
|        1280|  7.0603e+01|  7.0603e+01|   -7.653592|  1.8935e-04|    0.042425|
|        1290|  7.0603e+01|  7.0603e+01|   -7.563991|  1.9452e-04|    0.042483|
|        1300|  1.2200e+01|  1.2200e+01|   -7.638204|  2.0365e-04|    0.042139|
|        1310|  7.5541e+01|  7.5541e+01|   -7.760568|  2.1096e-04|    0.041841|
|        1320|  3.8977e+01|  3.8977e+01|   -7.841723|  2.1909e-04|    0.041616|
|        1330|  6.7353e+00|  6.7353e+00|   -7.720517|  2.2534e-04|    0.041159|
|        1340|  4.1703e+01|  4.1703e+01|   -7.676042|  2.1715e-04|    0.041083|
|        1350|  2.1518e+01|  2.1518e+01|   -7.632067|  2.1710e-04|    0.041018|
|        1360|  6.4252e+01|  6.4252e+01|   -7.636200|  2.1685e-04|    0.041061|
|        1370|  6.4252e+01|  6.4252e+01|   -7.753762|  2.1914e-04|    0.041299|
|        1380|  6.4252e+01|  6.4252e+01|   -7.837651|  2.1666e-04|    0.041553|
|        1390|  6.4252e+01|  6.4252e+01|   -7.862713|  2.1045e-04|    0.041666|
|        1400|  1.1103e+01|  1.1103e+01|   -7.932543|  2.0941e-04|    0.041592|
+-----------------------------------------------------------------------+
|        File Writing Summary       |              Filename             |
+-----------------------------------------------------------------------+
|SU2 binary restart                 |restart_flow_G8.dat                |
|Paraview                           |flow_G8.vtu                        |
|Paraview surface                   |surface_flow_G8.vtu                |
+-----------------------------------------------------------------------+
+-----------------------------------------------------------------------------+
|  Inner_Iter|     Min CFL|     Max CFL|      rms[P]|  Cauchy[CD]|          CD|
+-----------------------------------------------------------------------------+
|        1410|  6.8746e+01|  6.8746e+01|   -8.013966|  2.0961e-04|    0.041495|
|        1420|  3.5471e+01|  3.5471e+01|   -7.997736|  2.1246e-04|    0.041403|
|        1430|  1.8302e+01|  1.8302e+01|   -7.917059|  2.1693e-04|    0.041250|
|        1440|  9.4436e+00|  9.4436e+00|   -7.850291|  2.2182e-04|    0.041071|
|        1450|  5.8472e+01|  5.8472e+01|   -7.850772|  2.2155e-04|    0.040980|
|        1460|  3.0170e+01|  3.0170e+01|   -7.872186|  2.1698e-04|    0.040912|
|        1470|  1.5567e+01|  1.5567e+01|   -7.924652|  2.1116e-04|    0.040868|
|        1480|  6.6937e+01|  6.6937e+01|   -7.978476|  2.0291e-04|    0.040887|
|        1490|  6.6937e+01|  6.6937e+01|   -8.026965|  1.8722e-04|    0.041039|
|        1500|  6.6937e+01|  6.6937e+01|   -8.061874|  1.8672e-04|    0.041212|
|        1510|  6.6937e+01|  6.6937e+01|   -8.037508|  1.8267e-04|    0.041291|
|        1520|  9.6389e+00|  9.6389e+00|   -8.003257|  1.6551e-04|    0.041252|
|        1530|  5.9681e+01|  5.9681e+01|   -8.026031|  1.4415e-04|    0.041214|
|        1540|  7.1618e+01|  7.1618e+01|   -8.079889|  1.4201e-04|    0.041094|
|        1550|  7.1618e+01|  7.1618e+01|   -8.146499|  1.3013e-04|    0.041048|
|        1560|  7.1618e+01|  7.1618e+01|   -8.187963|  1.2053e-04|    0.041106|
|        1570|  7.1618e+01|  7.1618e+01|   -8.196074|  1.1554e-04|    0.041206|
|        1580|  7.1618e+01|  7.1618e+01|   -8.110560|  1.0020e-04|    0.041280|
|        1590|  7.1618e+01|  7.1618e+01|   -8.065390|  9.8972e-05|    0.041325|
|        1600|  1.7821e+01|  1.7821e+01|   -8.103127|  9.7251e-05|    0.041348|
+-----------------------------------------------------------------------+
|        File Writing Summary       |              Filename             |
+-----------------------------------------------------------------------+
|SU2 binary restart                 |restart_flow_G8.dat                |
|Paraview                           |flow_G8.vtu                        |
|Paraview surface                   |surface_flow_G8.vtu                |
+-----------------------------------------------------------------------+
+-----------------------------------------------------------------------------+
|  Inner_Iter|     Min CFL|     Max CFL|      rms[P]|  Cauchy[CD]|          CD|
+-----------------------------------------------------------------------------+
|        1610|  9.1951e+00|  9.1951e+00|   -8.105966|  9.5861e-05|    0.041366|
|        1620|  5.6934e+01|  5.6934e+01|   -8.149104|  8.6757e-05|    0.041377|
|        1630|  6.8320e+01|  6.8320e+01|   -8.181508|  7.7202e-05|    0.041392|
|        1640|  6.8320e+01|  6.8320e+01|   -8.202969|  7.3076e-05|    0.041383|
|        1650|  6.8320e+01|  6.8320e+01|   -8.171626|  7.0572e-05|    0.041371|
|        1660|  6.8320e+01|  6.8320e+01|   -8.153983|  6.7385e-05|    0.041388|
|        1670|  6.8320e+01|  6.8320e+01|   -8.174610|  6.5414e-05|    0.041431|
|        1680|  6.8320e+01|  6.8320e+01|   -8.207228|  6.1039e-05|    0.041475|
|        1690|  2.4480e+01|  2.4480e+01|   -8.248652|  5.4427e-05|    0.041489|
|        1700|  1.2631e+01|  1.2631e+01|   -8.202206|  5.1118e-05|    0.041497|
|        1710|  6.5175e+01|  6.5175e+01|   -8.205112|  4.8499e-05|    0.041499|
|        1720|  6.5175e+01|  6.5175e+01|   -8.165674|  4.7333e-05|    0.041484|
|        1730|  6.5175e+01|  6.5175e+01|   -8.149260|  4.7775e-05|    0.041448|
|        1740|  6.5175e+01|  6.5175e+01|   -8.149894|  4.3316e-05|    0.041407|
|        1750|  1.1262e+01|  1.1262e+01|   -8.145614|  3.7503e-05|    0.041380|
|        1760|  6.9733e+01|  6.9733e+01|   -8.162145|  3.4779e-05|    0.041369|
|        1770|  3.5981e+01|  3.5981e+01|   -8.166215|  3.3422e-05|    0.041361|
|        1780|  1.8565e+01|  1.8565e+01|   -8.165109|  3.2239e-05|    0.041354|
|        1790|  6.6523e+01|  6.6523e+01|   -8.156524|  2.7695e-05|    0.041347|
|        1800|  1.3794e+01|  1.3794e+01|   -8.146445|  2.6116e-05|    0.041340|
+-----------------------------------------------------------------------+
|        File Writing Summary       |              Filename             |
+-----------------------------------------------------------------------+
|SU2 binary restart                 |restart_flow_G8.dat                |
|Paraview                           |flow_G8.vtu                        |
|Paraview surface                   |surface_flow_G8.vtu                |
+-----------------------------------------------------------------------+
+-----------------------------------------------------------------------------+
|  Inner_Iter|     Min CFL|     Max CFL|      rms[P]|  Cauchy[CD]|          CD|
+-----------------------------------------------------------------------------+
|        1810|  7.1175e+00|  7.1175e+00|   -8.155677|  2.4186e-05|    0.041330|
|        1820|  4.4069e+01|  4.4069e+01|   -8.159760|  2.0488e-05|    0.041322|
|        1830|  2.2739e+01|  2.2739e+01|   -8.163094|  1.8185e-05|    0.041306|
|        1840|  6.7898e+01|  6.7898e+01|   -8.166842|  1.7761e-05|    0.041271|
|        1850|  6.7898e+01|  6.7898e+01|   -8.179373|  1.9384e-05|    0.041208|
|        1860|  6.7898e+01|  6.7898e+01|   -8.194751|  2.1495e-05|    0.041137|
|        1870|  1.6895e+01|  1.6895e+01|   -8.197756|  2.2736e-05|    0.041095|
|        1880|  8.7175e+00|  8.7175e+00|   -8.214386|  2.3130e-05|    0.041070|
|        1890|  5.3977e+01|  5.3977e+01|   -8.220566|  2.3267e-05|    0.041057|
|        1900|  2.7851e+01|  2.7851e+01|   -8.221570|  2.3359e-05|    0.041043|
|        1910|  6.9302e+01|  6.9302e+01|   -8.230284|  2.3406e-05|    0.041025|
|        1920|  6.9302e+01|  6.9302e+01|   -8.245251|  2.2793e-05|    0.040997|
|        1930|  6.9302e+01|  6.9302e+01|   -8.261158|  2.2813e-05|    0.040953|
|        1940|  6.9302e+01|  6.9302e+01|   -8.277150|  2.4363e-05|    0.040901|
|        1950|  6.9302e+01|  6.9302e+01|   -8.293531|  2.5961e-05|    0.040852|
|        1960|  6.9302e+01|  6.9302e+01|   -8.312673|  2.7394e-05|    0.040814|
|        1970|  6.9302e+01|  6.9302e+01|   -8.333415|  2.7939e-05|    0.040785|
|        1980|  6.9302e+01|  6.9302e+01|   -8.352337|  2.7520e-05|    0.040760|
|        1990|  8.3162e+00|  8.3162e+00|   -8.367551|  2.6814e-05|    0.040737|
|        2000|  5.1492e+01|  5.1492e+01|   -8.392757|  2.6044e-05|    0.040728|
+-----------------------------------------------------------------------+
|        File Writing Summary       |              Filename             |
+-----------------------------------------------------------------------+
|SU2 binary restart                 |restart_flow_G8.dat                |
|Paraview                           |flow_G8.vtu                        |
|Paraview surface                   |surface_flow_G8.vtu                |
+-----------------------------------------------------------------------+
+-----------------------------------------------------------------------------+
|  Inner_Iter|     Min CFL|     Max CFL|      rms[P]|  Cauchy[CD]|          CD|
+-----------------------------------------------------------------------------+
|        2010|  2.6569e+01|  2.6569e+01|   -8.398002|  2.6069e-05|    0.040717|
|        2020|  6.6111e+01|  6.6111e+01|   -8.387869|  2.6570e-05|    0.040697|
|        2030|  6.6111e+01|  6.6111e+01|   -8.400377|  2.7160e-05|    0.040675|
|        2040|  6.6111e+01|  6.6111e+01|   -8.406804|  2.7880e-05|    0.040650|
|        2050|  6.6111e+01|  6.6111e+01|   -8.414932|  2.8588e-05|    0.040625|
|        2060|  6.6111e+01|  6.6111e+01|   -8.422459|  2.9225e-05|    0.040599|
|        2070|  6.6111e+01|  6.6111e+01|   -8.428619|  2.9969e-05|    0.040573|
|        2080|  6.6111e+01|  6.6111e+01|   -8.431210|  3.0340e-05|    0.040547|
|        2090|  6.6111e+01|  6.6111e+01|   -8.429241|  2.9947e-05|    0.040523|
|        2100|  6.6111e+01|  6.6111e+01|   -8.423901|  2.8480e-05|    0.040496|
|        2110|  6.6111e+01|  6.6111e+01|   -8.415551|  2.6869e-05|    0.040465|
|        2120|  6.6111e+01|  6.6111e+01|   -8.403953|  2.6664e-05|    0.040429|
|        2130|  6.6111e+01|  6.6111e+01|   -8.389594|  2.7299e-05|    0.040388|
|        2140|  6.6111e+01|  6.6111e+01|   -8.374842|  2.8518e-05|    0.040344|
|        2150|  6.6111e+01|  6.6111e+01|   -8.362338|  2.9762e-05|    0.040299|
|        2160|  6.6111e+01|  6.6111e+01|   -8.354207|  3.0891e-05|    0.040253|
|        2170|  6.6111e+01|  6.6111e+01|   -8.351971|  3.1777e-05|    0.040203|
|        2180|  6.6111e+01|  6.6111e+01|   -8.355330|  3.2171e-05|    0.040148|
|        2190|  6.6111e+01|  6.6111e+01|   -8.363137|  3.2426e-05|    0.040090|
|        2200|  6.6111e+01|  6.6111e+01|   -8.373999|  3.2954e-05|    0.040028|
+-----------------------------------------------------------------------+
|        File Writing Summary       |              Filename             |
+-----------------------------------------------------------------------+
|SU2 binary restart                 |restart_flow_G8.dat                |
|Paraview                           |flow_G8.vtu                        |
|Paraview surface                   |surface_flow_G8.vtu                |
+-----------------------------------------------------------------------+
+-----------------------------------------------------------------------------+
|  Inner_Iter|     Min CFL|     Max CFL|      rms[P]|  Cauchy[CD]|          CD|
+-----------------------------------------------------------------------------+
|        2210|  1.3709e+01|  1.3709e+01|   -8.368097|  3.3397e-05|    0.039979|
|        2220|  7.0734e+00|  7.0734e+00|   -8.401880|  3.3659e-05|    0.039944|
|        2230|  4.3797e+01|  4.3797e+01|   -8.413285|  3.3414e-05|    0.039925|
|        2240|  2.2598e+01|  2.2598e+01|   -8.415936|  3.3727e-05|    0.039894|
|        2250|  6.7478e+01|  6.7478e+01|   -8.421590|  3.5351e-05|    0.039845|
|        2260|  6.7478e+01|  6.7478e+01|   -8.438841|  3.7612e-05|    0.039777|
|        2270|  6.7478e+01|  6.7478e+01|   -8.454231|  3.9666e-05|    0.039705|
|        2280|  6.7478e+01|  6.7478e+01|   -8.467960|  4.1661e-05|    0.039633|
|        2290|  6.7478e+01|  6.7478e+01|   -8.479574|  4.3547e-05|    0.039561|
|        2300|  6.7478e+01|  6.7478e+01|   -8.488915|  4.5387e-05|    0.039490|
|        2310|  6.7478e+01|  6.7478e+01|   -8.496349|  4.7162e-05|    0.039420|
|        2320|  6.7478e+01|  6.7478e+01|   -8.501853|  4.8832e-05|    0.039352|
|        2330|  6.7478e+01|  6.7478e+01|   -8.506079|  5.0459e-05|    0.039286|
|        2340|  6.7478e+01|  6.7478e+01|   -8.510091|  5.2058e-05|    0.039221|
|        2350|  6.7478e+01|  6.7478e+01|   -8.514463|  5.3491e-05|    0.039159|
|        2360|  6.7478e+01|  6.7478e+01|   -8.519227|  5.4641e-05|    0.039099|
|        2370|  6.7478e+01|  6.7478e+01|   -8.524915|  5.5471e-05|    0.039042|
|        2380|  6.7478e+01|  6.7478e+01|   -8.532121|  5.6016e-05|    0.038987|
|        2390|  6.7478e+01|  6.7478e+01|   -8.540379|  5.6359e-05|    0.038935|
|        2400|  6.7478e+01|  6.7478e+01|   -8.548880|  5.6562e-05|    0.038885|
+-----------------------------------------------------------------------+
|        File Writing Summary       |              Filename             |
+-----------------------------------------------------------------------+
|SU2 binary restart                 |restart_flow_G8.dat                |
|Paraview                           |flow_G8.vtu                        |
|Paraview surface                   |surface_flow_G8.vtu                |
+-----------------------------------------------------------------------+
+-----------------------------------------------------------------------------+
|  Inner_Iter|     Min CFL|     Max CFL|      rms[P]|  Cauchy[CD]|          CD|
+-----------------------------------------------------------------------------+
|        2410|  6.7478e+01|  6.7478e+01|   -8.557642|  5.6593e-05|    0.038838|
|        2420|  6.7478e+01|  6.7478e+01|   -8.566743|  5.6393e-05|    0.038793|
|        2430|  6.7478e+01|  6.7478e+01|   -8.576020|  5.5949e-05|    0.038750|
|        2440|  6.7478e+01|  6.7478e+01|   -8.585168|  5.5292e-05|    0.038708|
|        2450|  6.7478e+01|  6.7478e+01|   -8.594257|  5.4460e-05|    0.038667|
|        2460|  6.7478e+01|  6.7478e+01|   -8.603606|  5.4103e-05|    0.038627|
|        2470|  6.7478e+01|  6.7478e+01|   -8.613362|  5.4277e-05|    0.038587|
|        2480|  6.7478e+01|  6.7478e+01|   -8.623612|  5.5095e-05|    0.038548|
|        2490|  1.3992e+01|  1.3992e+01|   -8.635978|  5.4875e-05|    0.038522|
|        2500|  7.2197e+00|  7.2197e+00|   -8.647436|  5.3748e-05|    0.038501|
|        2510|  4.4702e+01|  4.4702e+01|   -8.661246|  5.1481e-05|    0.038490|
|        2520|  6.4371e+01|  6.4371e+01|   -8.654365|  5.0042e-05|    0.038454|
|        2530|  6.4371e+01|  6.4371e+01|   -8.669184|  4.8657e-05|    0.038417|
|        2540|  6.4371e+01|  6.4371e+01|   -8.677965|  4.7371e-05|    0.038377|
|        2550|  6.4371e+01|  6.4371e+01|   -8.690492|  4.6150e-05|    0.038336|
|        2560|  6.4371e+01|  6.4371e+01|   -8.700890|  4.4995e-05|    0.038295|
|        2570|  6.4371e+01|  6.4371e+01|   -8.709793|  4.3932e-05|    0.038254|
|        2580|  6.4371e+01|  6.4371e+01|   -8.715124|  4.2960e-05|    0.038212|
|        2590|  6.4371e+01|  6.4371e+01|   -8.717201|  4.2084e-05|    0.038169|
|        2600|  6.4371e+01|  6.4371e+01|   -8.716315|  4.1317e-05|    0.038126|
+-----------------------------------------------------------------------+
|        File Writing Summary       |              Filename             |
+-----------------------------------------------------------------------+
|SU2 binary restart                 |restart_flow_G8.dat                |
|Paraview                           |flow_G8.vtu                        |
|Paraview surface                   |surface_flow_G8.vtu                |
+-----------------------------------------------------------------------+
+-----------------------------------------------------------------------------+
|  Inner_Iter|     Min CFL|     Max CFL|      rms[P]|  Cauchy[CD]|          CD|
+-----------------------------------------------------------------------------+
|        2610|  6.4371e+01|  6.4371e+01|   -8.712585|  4.0667e-05|    0.038082|
|        2620|  6.4371e+01|  6.4371e+01|   -8.706244|  4.0145e-05|    0.038038|
|        2630|  6.4371e+01|  6.4371e+01|   -8.698531|  3.9743e-05|    0.037994|
|        2640|  6.4371e+01|  6.4371e+01|   -8.691418|  3.9427e-05|    0.037949|
|        2650|  6.4371e+01|  6.4371e+01|   -8.685940|  3.9184e-05|    0.037906|
|        2660|  6.4371e+01|  6.4371e+01|   -8.682381|  3.9027e-05|    0.037862|
|        2670|  6.4371e+01|  6.4371e+01|   -8.681454|  3.8953e-05|    0.037819|
|        2680|  6.4371e+01|  6.4371e+01|   -8.683939|  3.8929e-05|    0.037776|
|        2690|  6.4371e+01|  6.4371e+01|   -8.689860|  3.8925e-05|    0.037735|
|        2700|  6.4371e+01|  6.4371e+01|   -8.698828|  3.8928e-05|    0.037694|
|        2710|  6.4371e+01|  6.4371e+01|   -8.710539|  3.8932e-05|    0.037653|
|        2720|  6.4371e+01|  6.4371e+01|   -8.724715|  3.8928e-05|    0.037614|
|        2730|  6.4371e+01|  6.4371e+01|   -8.740682|  3.8911e-05|    0.037575|
|        2740|  6.4371e+01|  6.4371e+01|   -8.757489|  3.9408e-05|    0.037537|
|        2750|  6.4371e+01|  6.4371e+01|   -8.774220|  4.0058e-05|    0.037500|
|        2760|  6.4371e+01|  6.4371e+01|   -8.789941|  4.1064e-05|    0.037463|
|        2770|  6.4371e+01|  6.4371e+01|   -8.804040|  4.1080e-05|    0.037427|
|        2780|  1.9221e+01|  1.9221e+01|   -8.825559|  4.0284e-05|    0.037410|
|        2790|  9.9177e+00|  9.9177e+00|   -8.810484|  3.9407e-05|    0.037392|
|        2800|  6.1408e+01|  6.1408e+01|   -8.834789|  3.8343e-05|    0.037378|
+-----------------------------------------------------------------------+
|        File Writing Summary       |              Filename             |
+-----------------------------------------------------------------------+
|SU2 binary restart                 |restart_flow_G8.dat                |
|Paraview                           |flow_G8.vtu                        |
|Paraview surface                   |surface_flow_G8.vtu                |
+-----------------------------------------------------------------------+
+-----------------------------------------------------------------------------+
|  Inner_Iter|     Min CFL|     Max CFL|      rms[P]|  Cauchy[CD]|          CD|
+-----------------------------------------------------------------------------+
|        2810|  6.1408e+01|  6.1408e+01|   -8.831112|  3.7995e-05|    0.037345|
|        2820|  6.1408e+01|  6.1408e+01|   -8.839662|  3.7616e-05|    0.037313|
|        2830|  6.1408e+01|  6.1408e+01|   -8.842503|  3.7236e-05|    0.037281|
|        2840|  6.1408e+01|  6.1408e+01|   -8.846822|  3.6835e-05|    0.037248|
|        2850|  6.1408e+01|  6.1408e+01|   -8.849066|  3.6396e-05|    0.037216|
|        2860|  6.1408e+01|  6.1408e+01|   -8.851555|  3.5911e-05|    0.037184|
|        2870|  6.1408e+01|  6.1408e+01|   -8.853390|  3.5389e-05|    0.037153|
|        2880|  6.1408e+01|  6.1408e+01|   -8.855679|  3.4854e-05|    0.037122|
|        2890|  6.1408e+01|  6.1408e+01|   -8.857737|  3.4328e-05|    0.037091|
|        2900|  6.1408e+01|  6.1408e+01|   -8.859939|  3.3820e-05|    0.037060|
|        2910|  6.1408e+01|  6.1408e+01|   -8.862438|  3.3325e-05|    0.037029|
|        2920|  6.1408e+01|  6.1408e+01|   -8.865267|  3.2846e-05|    0.036998|
|        2930|  6.1408e+01|  6.1408e+01|   -8.868295|  3.2384e-05|    0.036967|
|        2940|  8.8427e+00|  8.8427e+00|   -8.860584|  3.1718e-05|    0.036942|
|        2950|  5.4752e+01|  5.4752e+01|   -8.883861|  3.0532e-05|    0.036930|
|        2960|  2.8251e+01|  2.8251e+01|   -8.887080|  2.9368e-05|    0.036919|
|        2970|  5.8581e+01|  5.8581e+01|   -8.879440|  2.8769e-05|    0.036894|
|        2980|  5.8581e+01|  5.8581e+01|   -8.884719|  2.8355e-05|    0.036866|
|        2990|  5.8581e+01|  5.8581e+01|   -8.889635|  2.7982e-05|    0.036837|
|        3000|  5.8581e+01|  5.8581e+01|   -8.894031|  2.7652e-05|    0.036808|
+-----------------------------------------------------------------------+
|        File Writing Summary       |              Filename             |
+-----------------------------------------------------------------------+
|SU2 binary restart                 |restart_flow_G8.dat                |
|Paraview                           |flow_G8.vtu                        |
|Paraview surface                   |surface_flow_G8.vtu                |
+-----------------------------------------------------------------------+
+-----------------------------------------------------------------------------+
|  Inner_Iter|     Min CFL|     Max CFL|      rms[P]|  Cauchy[CD]|          CD|
+-----------------------------------------------------------------------------+
|        3010|  5.8581e+01|  5.8581e+01|   -8.901543|  2.7345e-05|    0.036779|
|        3020|  5.8581e+01|  5.8581e+01|   -8.909036|  2.7056e-05|    0.036751|
|        3030|  5.8581e+01|  5.8581e+01|   -8.918083|  2.7462e-05|    0.036723|
|        3040|  5.8581e+01|  5.8581e+01|   -8.927231|  2.7852e-05|    0.036696|
|        3050|  5.8581e+01|  5.8581e+01|   -8.937650|  2.8388e-05|    0.036668|
|        3060|  5.8581e+01|  5.8581e+01|   -8.948822|  2.8189e-05|    0.036641|
|        3070|  5.8581e+01|  5.8581e+01|   -8.960404|  2.7993e-05|    0.036613|
|        3080|  5.8581e+01|  5.8581e+01|   -8.971545|  2.7772e-05|    0.036586|
|        3090|  5.8581e+01|  5.8581e+01|   -8.981570|  2.7548e-05|    0.036560|
|        3100|  5.8581e+01|  5.8581e+01|   -8.990275|  2.7331e-05|    0.036533|
|        3110|  5.8581e+01|  5.8581e+01|   -8.997377|  2.7125e-05|    0.036506|
|        3120|  5.8581e+01|  5.8581e+01|   -9.002562|  2.6935e-05|    0.036480|
|        3130|  5.8581e+01|  5.8581e+01|   -9.005630|  2.6745e-05|    0.036454|
|        3140|  5.8581e+01|  5.8581e+01|   -9.006661|  2.6549e-05|    0.036427|
|        3150|  5.8581e+01|  5.8581e+01|   -9.006039|  2.6353e-05|    0.036401|
|        3160|  5.8581e+01|  5.8581e+01|   -9.004382|  2.6157e-05|    0.036375|
|        3170|  5.8581e+01|  5.8581e+01|   -9.002396|  2.5950e-05|    0.036349|
|        3180|  1.4577e+01|  1.4577e+01|   -9.006956|  2.5304e-05|    0.036334|
|        3190|  7.5213e+00|  7.5213e+00|   -9.003452|  2.4832e-05|    0.036321|
|        3200|  4.6570e+01|  4.6570e+01|   -9.013480|  2.4731e-05|    0.036312|
+-----------------------------------------------------------------------+
|        File Writing Summary       |              Filename             |
+-----------------------------------------------------------------------+
|SU2 binary restart                 |restart_flow_G8.dat                |
|Paraview                           |flow_G8.vtu                        |
|Paraview surface                   |surface_flow_G8.vtu                |
+-----------------------------------------------------------------------+
+-----------------------------------------------------------------------------+
|  Inner_Iter|     Min CFL|     Max CFL|      rms[P]|  Cauchy[CD]|          CD|
+-----------------------------------------------------------------------------+
|        3210|  5.5884e+01|  5.5884e+01|   -9.001474|  2.5247e-05|    0.036288|
|        3220|  5.5884e+01|  5.5884e+01|   -9.002475|  2.5245e-05|    0.036263|
|        3230|  5.5884e+01|  5.5884e+01|   -9.004637|  2.5097e-05|    0.036239|
|        3240|  5.5884e+01|  5.5884e+01|   -9.007135|  2.4948e-05|    0.036214|
|        3250|  5.5884e+01|  5.5884e+01|   -9.011905|  2.4790e-05|    0.036189|
|        3260|  5.5884e+01|  5.5884e+01|   -9.017266|  2.4636e-05|    0.036164|
|        3270|  5.5884e+01|  5.5884e+01|   -9.023944|  2.4476e-05|    0.036139|
|        3280|  5.5884e+01|  5.5884e+01|   -9.030668|  2.4333e-05|    0.036115|
|        3290|  5.5884e+01|  5.5884e+01|   -9.037744|  2.4210e-05|    0.036090|
|        3300|  5.5884e+01|  5.5884e+01|   -9.044822|  2.4090e-05|    0.036066|
|        3310|  5.5884e+01|  5.5884e+01|   -9.051723|  2.3964e-05|    0.036042|
|        3320|  5.5884e+01|  5.5884e+01|   -9.058117|  2.3843e-05|    0.036017|
|        3330|  5.5884e+01|  5.5884e+01|   -9.063702|  2.3730e-05|    0.035993|
|        3340|  8.0473e+00|  8.0473e+00|   -9.057718|  2.3445e-05|    0.035973|
|        3350|  4.9827e+01|  4.9827e+01|   -9.081139|  2.2734e-05|    0.035964|
|        3360|  2.5709e+01|  2.5709e+01|   -9.086212|  2.2024e-05|    0.035956|
|        3370|  5.3311e+01|  5.3311e+01|   -9.075990|  2.1739e-05|    0.035937|
|        3380|  5.3311e+01|  5.3311e+01|   -9.079108|  2.1572e-05|    0.035914|
|        3390|  5.3311e+01|  5.3311e+01|   -9.082063|  2.1400e-05|    0.035892|
|        3400|  5.3311e+01|  5.3311e+01|   -9.083338|  2.1236e-05|    0.035870|
+-----------------------------------------------------------------------+
|        File Writing Summary       |              Filename             |
+-----------------------------------------------------------------------+
|SU2 binary restart                 |restart_flow_G8.dat                |
|Paraview                           |flow_G8.vtu                        |
|Paraview surface                   |surface_flow_G8.vtu                |
+-----------------------------------------------------------------------+
+-----------------------------------------------------------------------------+
|  Inner_Iter|     Min CFL|     Max CFL|      rms[P]|  Cauchy[CD]|          CD|
+-----------------------------------------------------------------------------+
|        3410|  5.3311e+01|  5.3311e+01|   -9.086053|  2.1076e-05|    0.035848|
|        3420|  5.3311e+01|  5.3311e+01|   -9.088103|  2.0918e-05|    0.035826|
|        3430|  5.3311e+01|  5.3311e+01|   -9.090486|  2.1185e-05|    0.035805|
|        3440|  5.3311e+01|  5.3311e+01|   -9.092393|  2.1491e-05|    0.035784|
|        3450|  5.3311e+01|  5.3311e+01|   -9.094482|  2.1972e-05|    0.035763|
|        3460|  5.3311e+01|  5.3311e+01|   -9.097091|  2.1844e-05|    0.035742|
|        3470|  5.3311e+01|  5.3311e+01|   -9.099737|  2.1696e-05|    0.035721|
|        3480|  5.3311e+01|  5.3311e+01|   -9.102587|  2.1530e-05|    0.035700|
|        3490|  5.3311e+01|  5.3311e+01|   -9.105397|  2.1348e-05|    0.035680|
|        3500|  5.3311e+01|  5.3311e+01|   -9.108407|  2.1163e-05|    0.035659|
|        3510|  5.3311e+01|  5.3311e+01|   -9.111639|  2.0981e-05|    0.035639|
|        3520|  5.3311e+01|  5.3311e+01|   -9.114981|  2.0806e-05|    0.035619|
|        3530|  5.3311e+01|  5.3311e+01|   -9.118386|  2.0633e-05|    0.035599|
|        3540|  5.3311e+01|  5.3311e+01|   -9.121944|  2.0452e-05|    0.035579|
|        3550|  5.3311e+01|  5.3311e+01|   -9.125887|  2.0268e-05|    0.035559|
|        3560|  5.3311e+01|  5.3311e+01|   -9.130212|  2.0092e-05|    0.035539|
|        3570|  5.3311e+01|  5.3311e+01|   -9.134811|  1.9921e-05|    0.035519|
|        3580|  5.3311e+01|  5.3311e+01|   -9.139676|  1.9747e-05|    0.035500|
|        3590|  5.3311e+01|  5.3311e+01|   -9.144866|  1.9743e-05|    0.035480|
|        3600|  5.3311e+01|  5.3311e+01|   -9.150414|  2.0169e-05|    0.035460|
+-----------------------------------------------------------------------+
|        File Writing Summary       |              Filename             |
+-----------------------------------------------------------------------+
|SU2 binary restart                 |restart_flow_G8.dat                |
|Paraview                           |flow_G8.vtu                        |
|Paraview surface                   |surface_flow_G8.vtu                |
+-----------------------------------------------------------------------+
+-----------------------------------------------------------------------------+
|  Inner_Iter|     Min CFL|     Max CFL|      rms[P]|  Cauchy[CD]|          CD|
+-----------------------------------------------------------------------------+
|        3610|  5.3311e+01|  5.3311e+01|   -9.156274|  2.0605e-05|    0.035441|
|        3620|  1.1055e+01|  1.1055e+01|   -9.161068|  2.0352e-05|    0.035428|
|        3630|  5.7039e+00|  5.7039e+00|   -9.169214|  1.9885e-05|    0.035417|
|        3640|  3.5317e+01|  3.5317e+01|   -9.178290|  1.9229e-05|    0.035412|
|        3650|  5.0857e+01|  5.0857e+01|   -9.172707|  1.9050e-05|    0.035394|
|        3660|  5.0857e+01|  5.0857e+01|   -9.179130|  1.8911e-05|    0.035375|
|        3670|  5.0857e+01|  5.0857e+01|   -9.185035|  1.8773e-05|    0.035357|
|        3680|  5.0857e+01|  5.0857e+01|   -9.189331|  1.8654e-05|    0.035338|
|        3690|  5.0857e+01|  5.0857e+01|   -9.194756|  1.8556e-05|    0.035320|
|        3700|  5.0857e+01|  5.0857e+01|   -9.198967|  1.8467e-05|    0.035301|
|        3710|  5.0857e+01|  5.0857e+01|   -9.202529|  1.8373e-05|    0.035282|
|        3720|  5.0857e+01|  5.0857e+01|   -9.205474|  1.8272e-05|    0.035264|
|        3730|  5.0857e+01|  5.0857e+01|   -9.207568|  1.8175e-05|    0.035246|
|        3740|  5.0857e+01|  5.0857e+01|   -9.209338|  1.8086e-05|    0.035228|
|        3750|  5.0857e+01|  5.0857e+01|   -9.210606|  1.7995e-05|    0.035210|
|        3760|  5.0857e+01|  5.0857e+01|   -9.211605|  1.7901e-05|    0.035192|
|        3770|  5.0857e+01|  5.0857e+01|   -9.212423|  1.7811e-05|    0.035174|
|        3780|  5.0857e+01|  5.0857e+01|   -9.213128|  1.7730e-05|    0.035156|
|        3790|  5.0857e+01|  5.0857e+01|   -9.213944|  1.7649e-05|    0.035138|
|        3800|  5.0857e+01|  5.0857e+01|   -9.214960|  1.7563e-05|    0.035120|
+-----------------------------------------------------------------------+
|        File Writing Summary       |              Filename             |
+-----------------------------------------------------------------------+
|SU2 binary restart                 |restart_flow_G8.dat                |
|Paraview                           |flow_G8.vtu                        |
|Paraview surface                   |surface_flow_G8.vtu                |
+-----------------------------------------------------------------------+
+-----------------------------------------------------------------------------+
|  Inner_Iter|     Min CFL|     Max CFL|      rms[P]|  Cauchy[CD]|          CD|
+-----------------------------------------------------------------------------+
|        3810|  5.0857e+01|  5.0857e+01|   -9.216292|  1.7469e-05|    0.035103|
|        3820|  5.0857e+01|  5.0857e+01|   -9.217985|  1.7371e-05|    0.035085|
|        3830|  5.0857e+01|  5.0857e+01|   -9.220135|  1.7273e-05|    0.035068|
|        3840|  5.0857e+01|  5.0857e+01|   -9.222783|  1.7176e-05|    0.035050|
|        3850|  5.0857e+01|  5.0857e+01|   -9.225820|  1.7079e-05|    0.035033|
|        3860|  5.0857e+01|  5.0857e+01|   -9.229106|  1.6978e-05|    0.035016|
|        3870|  5.0857e+01|  5.0857e+01|   -9.232506|  1.7144e-05|    0.034999|
|        3880|  5.0857e+01|  5.0857e+01|   -9.235985|  1.7401e-05|    0.034982|
|        3890|  5.0857e+01|  5.0857e+01|   -9.239498|  1.7849e-05|    0.034966|
|        3900|  5.0857e+01|  5.0857e+01|   -9.243005|  1.7810e-05|    0.034949|
|        3910|  5.0857e+01|  5.0857e+01|   -9.246415|  1.7732e-05|    0.034932|
|        3920|  1.5186e+01|  1.5186e+01|   -9.259003|  1.7322e-05|    0.034924|
|        3930|  7.8355e+00|  7.8355e+00|   -9.242032|  1.6913e-05|    0.034915|
|        3940|  4.8515e+01|  4.8515e+01|   -9.260854|  1.6436e-05|    0.034909|
|        3950|  4.8515e+01|  4.8515e+01|   -9.255376|  1.6310e-05|    0.034893|
|        3960|  4.8515e+01|  4.8515e+01|   -9.258388|  1.6191e-05|    0.034878|
|        3970|  4.8515e+01|  4.8515e+01|   -9.260681|  1.6078e-05|    0.034862|
|        3980|  4.8515e+01|  4.8515e+01|   -9.262241|  1.5968e-05|    0.034847|
|        3990|  4.8515e+01|  4.8515e+01|   -9.264374|  1.5855e-05|    0.034831|
|        4000|  4.8515e+01|  4.8515e+01|   -9.266185|  1.5745e-05|    0.034816|
+-----------------------------------------------------------------------+
|        File Writing Summary       |              Filename             |
+-----------------------------------------------------------------------+
|SU2 binary restart                 |restart_flow_G8.dat                |
|Paraview                           |flow_G8.vtu                        |
|Paraview surface                   |surface_flow_G8.vtu                |
+-----------------------------------------------------------------------+
+-----------------------------------------------------------------------------+
|  Inner_Iter|     Min CFL|     Max CFL|      rms[P]|  Cauchy[CD]|          CD|
+-----------------------------------------------------------------------------+
|        4010|  4.8515e+01|  4.8515e+01|   -9.268123|  1.5637e-05|    0.034801|
|        4020|  4.8515e+01|  4.8515e+01|   -9.269880|  1.5528e-05|    0.034785|
|        4030|  4.8515e+01|  4.8515e+01|   -9.271504|  1.5414e-05|    0.034770|
|        4040|  4.8515e+01|  4.8515e+01|   -9.273416|  1.5299e-05|    0.034755|
|        4050|  4.8515e+01|  4.8515e+01|   -9.275316|  1.5189e-05|    0.034740|
|        4060|  4.8515e+01|  4.8515e+01|   -9.277283|  1.5082e-05|    0.034725|
|        4070|  4.8515e+01|  4.8515e+01|   -9.279305|  1.4976e-05|    0.034711|
|        4080|  4.8515e+01|  4.8515e+01|   -9.281303|  1.4871e-05|    0.034696|
|        4090|  4.8515e+01|  4.8515e+01|   -9.283465|  1.4769e-05|    0.034681|
|        4100|  4.8515e+01|  4.8515e+01|   -9.285750|  1.4669e-05|    0.034667|
|        4110|  4.8515e+01|  4.8515e+01|   -9.288132|  1.4568e-05|    0.034652|
|        4120|  4.8515e+01|  4.8515e+01|   -9.290573|  1.4467e-05|    0.034637|
|        4130|  4.8515e+01|  4.8515e+01|   -9.293066|  1.4368e-05|    0.034623|
|        4140|  4.8515e+01|  4.8515e+01|   -9.295728|  1.4270e-05|    0.034609|
|        4150|  4.8515e+01|  4.8515e+01|   -9.298547|  1.4172e-05|    0.034595|
|        4160|  4.8515e+01|  4.8515e+01|   -9.301444|  1.4075e-05|    0.034580|
|        4170|  4.8515e+01|  4.8515e+01|   -9.304366|  1.4309e-05|    0.034566|
|        4180|  4.8515e+01|  4.8515e+01|   -9.307357|  1.4536e-05|    0.034552|
|        4190|  4.8515e+01|  4.8515e+01|   -9.310478|  1.4828e-05|    0.034538|
|        4200|  4.8515e+01|  4.8515e+01|   -9.313741|  1.4763e-05|    0.034524|
+-----------------------------------------------------------------------+
|        File Writing Summary       |              Filename             |
+-----------------------------------------------------------------------+
|SU2 binary restart                 |restart_flow_G8.dat                |
|Paraview                           |flow_G8.vtu                        |
|Paraview surface                   |surface_flow_G8.vtu                |
+-----------------------------------------------------------------------+
+-----------------------------------------------------------------------------+
|  Inner_Iter|     Min CFL|     Max CFL|      rms[P]|  Cauchy[CD]|          CD|
+-----------------------------------------------------------------------------+
|        4210|  4.8515e+01|  4.8515e+01|   -9.317104|  1.4695e-05|    0.034510|
|        4220|  4.8515e+01|  4.8515e+01|   -9.320536|  1.4630e-05|    0.034496|
|        4230|  4.8515e+01|  4.8515e+01|   -9.324015|  1.4563e-05|    0.034483|
|        4240|  4.8515e+01|  4.8515e+01|   -9.327530|  1.4494e-05|    0.034469|
|        4250|  4.8515e+01|  4.8515e+01|   -9.331072|  1.4423e-05|    0.034455|
|        4260|  4.8515e+01|  4.8515e+01|   -9.334569|  1.4353e-05|    0.034442|
|        4270|  4.8515e+01|  4.8515e+01|   -9.337940|  1.4287e-05|    0.034428|
|        4280|  4.8515e+01|  4.8515e+01|   -9.341146|  1.4224e-05|    0.034415|
|        4290|  4.8515e+01|  4.8515e+01|   -9.344182|  1.4160e-05|    0.034401|
|        4300|  4.8515e+01|  4.8515e+01|   -9.347062|  1.4094e-05|    0.034388|
|        4310|  4.8515e+01|  4.8515e+01|   -9.349782|  1.4030e-05|    0.034375|
|        4320|  4.8515e+01|  4.8515e+01|   -9.352316|  1.3970e-05|    0.034361|
|        4330|  4.8515e+01|  4.8515e+01|   -9.354639|  1.3910e-05|    0.034348|
|        4340|  4.8515e+01|  4.8515e+01|   -9.356774|  1.3847e-05|    0.034335|
|        4350|  4.8515e+01|  4.8515e+01|   -9.358749|  1.3783e-05|    0.034322|
|        4360|  4.8515e+01|  4.8515e+01|   -9.360582|  1.3721e-05|    0.034309|
|        4370|  4.8515e+01|  4.8515e+01|   -9.362303|  1.3662e-05|    0.034296|
|        4380|  4.8515e+01|  4.8515e+01|   -9.363931|  1.3604e-05|    0.034283|
|        4390|  4.8515e+01|  4.8515e+01|   -9.365519|  1.3546e-05|    0.034270|
|        4400|  1.4487e+01|  1.4487e+01|   -9.375505|  1.3233e-05|    0.034264|
+-----------------------------------------------------------------------+
|        File Writing Summary       |              Filename             |
+-----------------------------------------------------------------------+
|SU2 binary restart                 |restart_flow_G8.dat                |
|Paraview                           |flow_G8.vtu                        |
|Paraview surface                   |surface_flow_G8.vtu                |
+-----------------------------------------------------------------------+
+-----------------------------------------------------------------------------+
|  Inner_Iter|     Min CFL|     Max CFL|      rms[P]|  Cauchy[CD]|          CD|
+-----------------------------------------------------------------------------+
|        4410|  7.4748e+00|  7.4748e+00|   -9.359190|  1.2926e-05|    0.034257|
|        4420|  4.6282e+01|  4.6282e+01|   -9.377019|  1.2567e-05|    0.034252|
|        4430|  4.6282e+01|  4.6282e+01|   -9.371233|  1.2484e-05|    0.034240|
|        4440|  4.6282e+01|  4.6282e+01|   -9.372739|  1.2408e-05|    0.034228|
|        4450|  4.6282e+01|  4.6282e+01|   -9.374881|  1.2331e-05|    0.034216|
|        4460|  4.6282e+01|  4.6282e+01|   -9.376291|  1.2255e-05|    0.034204|
|        4470|  4.6282e+01|  4.6282e+01|   -9.378204|  1.2180e-05|    0.034192|
|        4480|  4.6282e+01|  4.6282e+01|   -9.380210|  1.2107e-05|    0.034180|
|        4490|  4.6282e+01|  4.6282e+01|   -9.382236|  1.2036e-05|    0.034168|
|        4500|  4.6282e+01|  4.6282e+01|   -9.384342|  1.1961e-05|    0.034156|
|        4510|  4.6282e+01|  4.6282e+01|   -9.386240|  1.1882e-05|    0.034145|
|        4520|  4.6282e+01|  4.6282e+01|   -9.388244|  1.1803e-05|    0.034133|
|        4530|  4.6282e+01|  4.6282e+01|   -9.390311|  1.1727e-05|    0.034122|
|        4540|  4.6282e+01|  4.6282e+01|   -9.392342|  1.1652e-05|    0.034110|
|        4550|  4.6282e+01|  4.6282e+01|   -9.394390|  1.1576e-05|    0.034099|
|        4560|  4.6282e+01|  4.6282e+01|   -9.396314|  1.1498e-05|    0.034087|
|        4570|  4.6282e+01|  4.6282e+01|   -9.398154|  1.1421e-05|    0.034076|
|        4580|  4.6282e+01|  4.6282e+01|   -9.399985|  1.1345e-05|    0.034065|
|        4590|  4.6282e+01|  4.6282e+01|   -9.401797|  1.1269e-05|    0.034053|
|        4600|  4.6282e+01|  4.6282e+01|   -9.403574|  1.1193e-05|    0.034042|
+-----------------------------------------------------------------------+
|        File Writing Summary       |              Filename             |
+-----------------------------------------------------------------------+
|SU2 binary restart                 |restart_flow_G8.dat                |
|Paraview                           |flow_G8.vtu                        |
|Paraview surface                   |surface_flow_G8.vtu                |
+-----------------------------------------------------------------------+
+-----------------------------------------------------------------------------+
|  Inner_Iter|     Min CFL|     Max CFL|      rms[P]|  Cauchy[CD]|          CD|
+-----------------------------------------------------------------------------+
|        4610|  4.6282e+01|  4.6282e+01|   -9.405271|  1.1115e-05|    0.034031|
|        4620|  4.6282e+01|  4.6282e+01|   -9.406919|  1.1037e-05|    0.034020|
|        4630|  4.6282e+01|  4.6282e+01|   -9.408637|  1.0959e-05|    0.034009|
|        4640|  4.6282e+01|  4.6282e+01|   -9.410418|  1.0883e-05|    0.033998|
|        4650|  4.6282e+01|  4.6282e+01|   -9.412222|  1.1062e-05|    0.033987|
|        4660|  4.6282e+01|  4.6282e+01|   -9.414014|  1.1236e-05|    0.033976|
|        4670|  4.6282e+01|  4.6282e+01|   -9.415802|  1.1461e-05|    0.033965|
|        4680|  4.6282e+01|  4.6282e+01|   -9.417616|  1.1411e-05|    0.033955|
|        4690|  4.6282e+01|  4.6282e+01|   -9.419484|  1.1355e-05|    0.033944|
|        4700|  4.6282e+01|  4.6282e+01|   -9.421429|  1.1301e-05|    0.033933|
|        4710|  4.6282e+01|  4.6282e+01|   -9.423472|  1.1248e-05|    0.033923|
|        4720|  4.6282e+01|  4.6282e+01|   -9.425580|  1.1193e-05|    0.033912|
|        4730|  4.6282e+01|  4.6282e+01|   -9.427748|  1.1136e-05|    0.033902|
|        4740|  4.6282e+01|  4.6282e+01|   -9.429985|  1.1079e-05|    0.033891|
|        4750|  4.6282e+01|  4.6282e+01|   -9.432295|  1.1025e-05|    0.033881|
|        4760|  4.6282e+01|  4.6282e+01|   -9.434655|  1.0976e-05|    0.033870|
|        4770|  4.6282e+01|  4.6282e+01|   -9.437036|  1.0927e-05|    0.033860|
|        4780|  4.6282e+01|  4.6282e+01|   -9.439396|  1.0876e-05|    0.033850|
|        4790|  4.6282e+01|  4.6282e+01|   -9.441751|  1.0824e-05|    0.033839|
|        4800|  4.6282e+01|  4.6282e+01|   -9.444140|  1.0774e-05|    0.033829|
+-----------------------------------------------------------------------+
|        File Writing Summary       |              Filename             |
+-----------------------------------------------------------------------+
|SU2 binary restart                 |restart_flow_G8.dat                |
|Paraview                           |flow_G8.vtu                        |
|Paraview surface                   |surface_flow_G8.vtu                |
+-----------------------------------------------------------------------+
+-----------------------------------------------------------------------------+
|  Inner_Iter|     Min CFL|     Max CFL|      rms[P]|  Cauchy[CD]|          CD|
+-----------------------------------------------------------------------------+
|        4810|  4.6282e+01|  4.6282e+01|   -9.446587|  1.0726e-05|    0.033819|
|        4820|  4.6282e+01|  4.6282e+01|   -9.449078|  1.0678e-05|    0.033809|
|        4830|  4.6282e+01|  4.6282e+01|   -9.451583|  1.0628e-05|    0.033799|
|        4840|  4.6282e+01|  4.6282e+01|   -9.454093|  1.0578e-05|    0.033789|
|        4850|  4.6282e+01|  4.6282e+01|   -9.456579|  1.0530e-05|    0.033779|
|        4860|  4.6282e+01|  4.6282e+01|   -9.459041|  1.0483e-05|    0.033769|
|        4870|  4.6282e+01|  4.6282e+01|   -9.461462|  1.0437e-05|    0.033759|
|        4880|  4.6282e+01|  4.6282e+01|   -9.463834|  1.0392e-05|    0.033749|
|        4890|  4.6282e+01|  4.6282e+01|   -9.466147|  1.0346e-05|    0.033739|
|        4900|  4.6282e+01|  4.6282e+01|   -9.468396|  1.0299e-05|    0.033730|
|        4910|  4.6282e+01|  4.6282e+01|   -9.470595|  1.0253e-05|    0.033720|
|        4920|  4.6282e+01|  4.6282e+01|   -9.472761|  1.0207e-05|    0.033710|
|        4930|  4.6282e+01|  4.6282e+01|   -9.474896|  1.0163e-05|    0.033701|
|        4940|  4.6282e+01|  4.6282e+01|   -9.476985|  1.0120e-05|    0.033691|
|        4950|  4.6282e+01|  4.6282e+01|   -9.479028|  1.0076e-05|    0.033681|
|        4960|  4.6282e+01|  4.6282e+01|   -9.481022|  1.0031e-05|    0.033672|
|        4970|  4.6282e+01|  4.6282e+01|   -9.482960|  9.9861e-06|    0.033663|
|        4980|  4.6282e+01|  4.6282e+01|   -9.484849|  9.9416e-06|    0.033653|
|        4990|  4.6282e+01|  4.6282e+01|   -9.486696|  9.8975e-06|    0.033644|
|        5000|  4.6282e+01|  4.6282e+01|   -9.488511|  9.8534e-06|    0.033634|
+-----------------------------------------------------------------------+
|        File Writing Summary       |              Filename             |
+-----------------------------------------------------------------------+
|SU2 binary restart                 |restart_flow_G8.dat                |
|Paraview                           |flow_G8.vtu                        |
|Paraview surface                   |surface_flow_G8.vtu                |
+-----------------------------------------------------------------------+
+-----------------------------------------------------------------------------+
|  Inner_Iter|     Min CFL|     Max CFL|      rms[P]|  Cauchy[CD]|          CD|
+-----------------------------------------------------------------------------+
|        5010|  4.6282e+01|  4.6282e+01|   -9.490320|  9.8092e-06|    0.033625|
|        5020|  4.6282e+01|  4.6282e+01|   -9.492131|  9.7656e-06|    0.033616|
|        5030|  4.6282e+01|  4.6282e+01|   -9.493957|  9.7228e-06|    0.033607|
|        5040|  4.6282e+01|  4.6282e+01|   -9.495790|  9.6805e-06|    0.033597|
|        5050|  4.6282e+01|  4.6282e+01|   -9.497635|  9.6379e-06|    0.033588|
|        5060|  4.6282e+01|  4.6282e+01|   -9.499492|  9.5947e-06|    0.033579|
|        5070|  4.6282e+01|  4.6282e+01|   -9.501372|  9.5511e-06|    0.033570|
|        5080|  4.6282e+01|  4.6282e+01|   -9.503271|  9.5077e-06|    0.033561|
|        5090|  4.6282e+01|  4.6282e+01|   -9.505174|  9.4647e-06|    0.033552|
|        5100|  4.6282e+01|  4.6282e+01|   -9.507077|  9.4219e-06|    0.033543|
|        5110|  4.6282e+01|  4.6282e+01|   -9.508972|  9.3795e-06|    0.033534|
|        5120|  4.6282e+01|  4.6282e+01|   -9.510874|  9.3372e-06|    0.033526|
|        5130|  4.6282e+01|  4.6282e+01|   -9.512768|  9.2953e-06|    0.033517|
|        5140|  4.6282e+01|  4.6282e+01|   -9.514662|  9.2534e-06|    0.033508|
|        5150|  4.6282e+01|  4.6282e+01|   -9.516552|  9.2115e-06|    0.033499|
|        5160|  4.6282e+01|  4.6282e+01|   -9.518421|  9.1694e-06|    0.033491|
|        5170|  4.6282e+01|  4.6282e+01|   -9.520269|  9.1272e-06|    0.033482|
|        5180|  4.6282e+01|  4.6282e+01|   -9.522085|  9.0849e-06|    0.033473|
|        5190|  4.6282e+01|  4.6282e+01|   -9.523866|  9.0428e-06|    0.033465|
|        5200|  4.6282e+01|  4.6282e+01|   -9.525632|  9.0009e-06|    0.033456|
+-----------------------------------------------------------------------+
|        File Writing Summary       |              Filename             |
+-----------------------------------------------------------------------+
|SU2 binary restart                 |restart_flow_G8.dat                |
|Paraview                           |flow_G8.vtu                        |
|Paraview surface                   |surface_flow_G8.vtu                |
+-----------------------------------------------------------------------+
+-----------------------------------------------------------------------------+
|  Inner_Iter|     Min CFL|     Max CFL|      rms[P]|  Cauchy[CD]|          CD|
+-----------------------------------------------------------------------------+
|        5210|  4.6282e+01|  4.6282e+01|   -9.527389|  8.9592e-06|    0.033448|
|        5220|  4.6282e+01|  4.6282e+01|   -9.529148|  8.9175e-06|    0.033440|
|        5230|  4.6282e+01|  4.6282e+01|   -9.530911|  8.8759e-06|    0.033431|
|        5240|  4.6282e+01|  4.6282e+01|   -9.532670|  8.8344e-06|    0.033423|
|        5250|  4.6282e+01|  4.6282e+01|   -9.534426|  8.7930e-06|    0.033415|
|        5260|  4.6282e+01|  4.6282e+01|   -9.536189|  8.7517e-06|    0.033406|
|        5270|  4.6282e+01|  4.6282e+01|   -9.537977|  8.7105e-06|    0.033398|
|        5280|  4.6282e+01|  4.6282e+01|   -9.539806|  8.6693e-06|    0.033390|
|        5290|  4.6282e+01|  4.6282e+01|   -9.541680|  8.6283e-06|    0.033382|
|        5300|  4.6282e+01|  4.6282e+01|   -9.543599|  8.5874e-06|    0.033374|
|        5310|  4.6282e+01|  4.6282e+01|   -9.545573|  8.5466e-06|    0.033366|
|        5320|  4.6282e+01|  4.6282e+01|   -9.547589|  8.5060e-06|    0.033358|
|        5330|  4.6282e+01|  4.6282e+01|   -9.549641|  8.4656e-06|    0.033350|
|        5340|  4.6282e+01|  4.6282e+01|   -9.551726|  8.4254e-06|    0.033342|
|        5350|  4.6282e+01|  4.6282e+01|   -9.553844|  8.3855e-06|    0.033334|
|        5360|  4.6282e+01|  4.6282e+01|   -9.555994|  8.3458e-06|    0.033326|
|        5370|  4.6282e+01|  4.6282e+01|   -9.558192|  8.3063e-06|    0.033318|
|        5380|  4.6282e+01|  4.6282e+01|   -9.560421|  8.2670e-06|    0.033310|
|        5390|  4.6282e+01|  4.6282e+01|   -9.562686|  8.2280e-06|    0.033302|
|        5400|  4.6282e+01|  4.6282e+01|   -9.564975|  8.1891e-06|    0.033295|
+-----------------------------------------------------------------------+
|        File Writing Summary       |              Filename             |
+-----------------------------------------------------------------------+
|SU2 binary restart                 |restart_flow_G8.dat                |
|Paraview                           |flow_G8.vtu                        |
|Paraview surface                   |surface_flow_G8.vtu                |
+-----------------------------------------------------------------------+
+-----------------------------------------------------------------------------+
|  Inner_Iter|     Min CFL|     Max CFL|      rms[P]|  Cauchy[CD]|          CD|
+-----------------------------------------------------------------------------+
|        5410|  4.6282e+01|  4.6282e+01|   -9.567276|  8.1506e-06|    0.033287|
|        5420|  4.6282e+01|  4.6282e+01|   -9.569589|  8.1123e-06|    0.033279|
|        5430|  4.6282e+01|  4.6282e+01|   -9.571888|  8.0743e-06|    0.033272|
|        5440|  4.6282e+01|  4.6282e+01|   -9.574158|  8.0366e-06|    0.033264|
|        5450|  4.6282e+01|  4.6282e+01|   -9.576397|  7.9991e-06|    0.033256|
|        5460|  4.6282e+01|  4.6282e+01|   -9.578596|  7.9619e-06|    0.033249|
|        5470|  4.6282e+01|  4.6282e+01|   -9.580764|  7.9250e-06|    0.033241|
|        5480|  4.6282e+01|  4.6282e+01|   -9.582902|  7.8884e-06|    0.033234|
|        5490|  4.6282e+01|  4.6282e+01|   -9.585030|  7.8520e-06|    0.033227|
|        5500|  4.6282e+01|  4.6282e+01|   -9.587141|  7.8158e-06|    0.033219|
|        5510|  4.6282e+00|  4.6282e+00|   -9.589235|  7.7799e-06|    0.033212|
|        5520|  2.8657e+01|  2.8657e+01|   -9.599405|  7.5290e-06|    0.033210|
|        5530|  1.4786e+01|  1.4786e+01|   -9.600599|  7.3283e-06|    0.033207|
|        5540|  4.4151e+01|  4.4151e+01|   -9.594750|  7.2057e-06|    0.033202|
|        5550|  4.4151e+01|  4.4151e+01|   -9.595560|  7.1582e-06|    0.033195|
|        5560|  4.4151e+01|  4.4151e+01|   -9.597483|  7.1124e-06|    0.033188|
|        5570|  4.4151e+01|  4.4151e+01|   -9.599362|  7.0655e-06|    0.033181|
|        5580|  4.4151e+01|  4.4151e+01|   -9.600940|  7.0193e-06|    0.033174|
|        5590|  4.4151e+01|  4.4151e+01|   -9.602717|  6.9744e-06|    0.033167|
|        5600|  4.4151e+01|  4.4151e+01|   -9.604613|  6.9311e-06|    0.033160|
+-----------------------------------------------------------------------+
|        File Writing Summary       |              Filename             |
+-----------------------------------------------------------------------+
|SU2 binary restart                 |restart_flow_G8.dat                |
|Paraview                           |flow_G8.vtu                        |
|Paraview surface                   |surface_flow_G8.vtu                |
+-----------------------------------------------------------------------+
+-----------------------------------------------------------------------------+
|  Inner_Iter|     Min CFL|     Max CFL|      rms[P]|  Cauchy[CD]|          CD|
+-----------------------------------------------------------------------------+
|        5610|  4.4151e+01|  4.4151e+01|   -9.606427|  6.8888e-06|    0.033154|
|        5620|  4.4151e+01|  4.4151e+01|   -9.608191|  6.8451e-06|    0.033147|
|        5630|  4.4151e+01|  4.4151e+01|   -9.609896|  6.8000e-06|    0.033140|
|        5640|  4.4151e+01|  4.4151e+01|   -9.611650|  6.7546e-06|    0.033134|
|        5650|  4.4151e+01|  4.4151e+01|   -9.613447|  6.7101e-06|    0.033127|
|        5660|  4.4151e+01|  4.4151e+01|   -9.615247|  6.6664e-06|    0.033120|
|        5670|  4.4151e+01|  4.4151e+01|   -9.617068|  6.6228e-06|    0.033114|
|        5680|  4.4151e+01|  4.4151e+01|   -9.618874|  6.5791e-06|    0.033107|
|        5690|  4.4151e+01|  4.4151e+01|   -9.620675|  6.5359e-06|    0.033101|
|        5700|  4.4151e+01|  4.4151e+01|   -9.622510|  6.4937e-06|    0.033094|
|        5710|  4.4151e+01|  4.4151e+01|   -9.624388|  6.4522e-06|    0.033088|
|        5720|  4.4151e+01|  4.4151e+01|   -9.626294|  6.4107e-06|    0.033081|
|        5730|  4.4151e+01|  4.4151e+01|   -9.628174|  6.3687e-06|    0.033075|
[...]
|        8360|  4.4151e+01|  4.4151e+01|  -10.149838|  2.0099e-06|    0.032097|
|        8370|  4.4151e+01|  4.4151e+01|  -10.151911|  2.0002e-06|    0.032095|
|        8380|  4.4151e+01|  4.4151e+01|  -10.153982|  1.9905e-06|    0.032093|
|        8390|  4.4151e+01|  4.4151e+01|  -10.156054|  1.9809e-06|    0.032091|
|        8400|  4.4151e+01|  4.4151e+01|  -10.158126|  1.9714e-06|    0.032089|
+-----------------------------------------------------------------------+
|        File Writing Summary       |              Filename             |
+-----------------------------------------------------------------------+
|SU2 binary restart                 |restart_flow_G8.dat                |
|Paraview                           |flow_G8.vtu                        |
|Paraview surface                   |surface_flow_G8.vtu                |
+-----------------------------------------------------------------------+
+-----------------------------------------------------------------------------+
|  Inner_Iter|     Min CFL|     Max CFL|      rms[P]|  Cauchy[CD]|          CD|
+-----------------------------------------------------------------------------+
|        8410|  4.4151e+01|  4.4151e+01|  -10.160196|  1.9618e-06|    0.032087|
|        8420|  4.4151e+01|  4.4151e+01|  -10.162266|  1.9524e-06|    0.032086|
|        8430|  4.4151e+01|  4.4151e+01|  -10.164338|  1.9429e-06|    0.032084|
|        8440|  4.4151e+01|  4.4151e+01|  -10.166412|  1.9336e-06|    0.032082|
|        8450|  4.4151e+01|  4.4151e+01|  -10.168489|  1.9243e-06|    0.032080|
|        8460|  4.4151e+01|  4.4151e+01|  -10.170567|  1.9150e-06|    0.032078|
|        8470|  4.4151e+01|  4.4151e+01|  -10.172646|  1.9058e-06|    0.032076|
|        8480|  4.4151e+01|  4.4151e+01|  -10.174734|  1.8966e-06|    0.032075|
|        8490|  4.4151e+01|  4.4151e+01|  -10.176819|  1.8875e-06|    0.032073|
|        8500|  4.4151e+01|  4.4151e+01|  -10.178904|  1.8785e-06|    0.032071|
|        8510|  4.4151e+01|  4.4151e+01|  -10.180989|  1.8695e-06|    0.032069|
|        8520|  4.4151e+01|  4.4151e+01|  -10.183068|  1.8605e-06|    0.032068|
|        8530|  4.4151e+01|  4.4151e+01|  -10.185141|  1.8516e-06|    0.032066|
|        8540|  4.4151e+01|  4.4151e+01|  -10.187212|  1.8428e-06|    0.032064|
|        8550|  4.4151e+01|  4.4151e+01|  -10.189282|  1.8340e-06|    0.032062|
|        8560|  4.4151e+01|  4.4151e+01|  -10.191351|  1.8253e-06|    0.032061|
|        8570|  4.4151e+01|  4.4151e+01|  -10.193421|  1.8166e-06|    0.032059|
|        8580|  4.4151e+01|  4.4151e+01|  -10.195494|  1.8079e-06|    0.032057|
|        8590|  4.4151e+01|  4.4151e+01|  -10.197567|  1.7993e-06|    0.032056|
|        8600|  4.4151e+01|  4.4151e+01|  -10.199642|  1.7908e-06|    0.032054|
+-----------------------------------------------------------------------+
|        File Writing Summary       |              Filename             |
+-----------------------------------------------------------------------+
|SU2 binary restart                 |restart_flow_G8.dat                |
|Paraview                           |flow_G8.vtu                        |
|Paraview surface                   |surface_flow_G8.vtu                |
+-----------------------------------------------------------------------+
+-----------------------------------------------------------------------------+
|  Inner_Iter|     Min CFL|     Max CFL|      rms[P]|  Cauchy[CD]|          CD|
+-----------------------------------------------------------------------------+
|        8610|  4.4151e+01|  4.4151e+01|  -10.201710|  1.7823e-06|    0.032052|
|        8620|  4.4151e+01|  4.4151e+01|  -10.203770|  1.7738e-06|    0.032050|
|        8630|  4.4151e+01|  4.4151e+01|  -10.205823|  1.7654e-06|    0.032049|
|        8640|  4.4151e+01|  4.4151e+01|  -10.207874|  1.7570e-06|    0.032047|
|        8650|  4.4151e+01|  4.4151e+01|  -10.209920|  1.7487e-06|    0.032046|
|        8660|  4.4151e+01|  4.4151e+01|  -10.211973|  1.7404e-06|    0.032044|
|        8670|  4.4151e+01|  4.4151e+01|  -10.214030|  1.7321e-06|    0.032042|
|        8680|  4.4151e+01|  4.4151e+01|  -10.216092|  1.7239e-06|    0.032041|
|        8690|  4.4151e+01|  4.4151e+01|  -10.218152|  1.7158e-06|    0.032039|
|        8700|  4.4151e+01|  4.4151e+01|  -10.220211|  1.7077e-06|    0.032037|
|        8710|  1.3183e+01|  1.3183e+01|  -10.229137|  1.6746e-06|    0.032036|
|        8720|  6.8024e+00|  6.8024e+00|  -10.215995|  1.6360e-06|    0.032036|
|        8730|  4.2119e+01|  4.2119e+01|  -10.230638|  1.5902e-06|    0.032035|
|        8740|  2.1732e+01|  2.1732e+01|  -10.233314|  1.5441e-06|    0.032034|
|        8750|  4.5064e+01|  4.5064e+01|  -10.226831|  1.5284e-06|    0.032033|
|        8760|  4.5064e+01|  4.5064e+01|  -10.228198|  1.5226e-06|    0.032031|
|        8770|  4.5064e+01|  4.5064e+01|  -10.230308|  1.5167e-06|    0.032030|
|        8780|  4.5064e+01|  4.5064e+01|  -10.232168|  1.5106e-06|    0.032028|
|        8790|  4.5064e+01|  4.5064e+01|  -10.234004|  1.5047e-06|    0.032026|
|        8800|  4.5064e+01|  4.5064e+01|  -10.236109|  1.4992e-06|    0.032025|
+-----------------------------------------------------------------------+
|        File Writing Summary       |              Filename             |
+-----------------------------------------------------------------------+
|SU2 binary restart                 |restart_flow_G8.dat                |
|Paraview                           |flow_G8.vtu                        |
|Paraview surface                   |surface_flow_G8.vtu                |
+-----------------------------------------------------------------------+
+-----------------------------------------------------------------------------+
|  Inner_Iter|     Min CFL|     Max CFL|      rms[P]|  Cauchy[CD]|          CD|
+-----------------------------------------------------------------------------+
|        8810|  4.5064e+01|  4.5064e+01|  -10.238239|  1.4940e-06|    0.032023|
|        8820|  4.5064e+01|  4.5064e+01|  -10.240234|  1.4886e-06|    0.032022|
|        8830|  4.5064e+01|  4.5064e+01|  -10.242181|  1.4827e-06|    0.032020|
|        8840|  4.5064e+01|  4.5064e+01|  -10.244183|  1.4766e-06|    0.032019|
|        8850|  4.5064e+01|  4.5064e+01|  -10.246276|  1.4706e-06|    0.032017|
|        8860|  4.5064e+01|  4.5064e+01|  -10.248399|  1.4649e-06|    0.032016|
|        8870|  4.5064e+01|  4.5064e+01|  -10.250513|  1.4593e-06|    0.032014|
|        8880|  4.5064e+01|  4.5064e+01|  -10.252611|  1.4536e-06|    0.032012|
|        8890|  4.5064e+01|  4.5064e+01|  -10.254690|  1.4480e-06|    0.032011|
|        8900|  4.5064e+01|  4.5064e+01|  -10.256786|  1.4425e-06|    0.032009|
|        8910|  4.5064e+01|  4.5064e+01|  -10.258929|  1.4372e-06|    0.032008|
|        8920|  4.5064e+01|  4.5064e+01|  -10.261083|  1.4319e-06|    0.032006|
|        8930|  4.5064e+01|  4.5064e+01|  -10.263189|  1.4264e-06|    0.032005|
|        8940|  4.5064e+01|  4.5064e+01|  -10.265237|  1.4208e-06|    0.032003|
|        8950|  4.5064e+01|  4.5064e+01|  -10.267303|  1.4152e-06|    0.032002|
|        8960|  4.5064e+01|  4.5064e+01|  -10.269439|  1.4346e-06|    0.032001|
|        8970|  4.5064e+01|  4.5064e+01|  -10.271605|  1.4599e-06|    0.031999|
|        8980|  4.5064e+01|  4.5064e+01|  -10.273744|  1.4924e-06|    0.031998|
|        8990|  4.5064e+01|  4.5064e+01|  -10.275846|  1.5253e-06|    0.031996|
|        9000|  4.5064e+01|  4.5064e+01|  -10.277935|  1.5278e-06|    0.031995|
+-----------------------------------------------------------------------+
|        File Writing Summary       |              Filename             |
+-----------------------------------------------------------------------+
|SU2 binary restart                 |restart_flow_G8.dat                |
|Paraview                           |flow_G8.vtu                        |
|Paraview surface                   |surface_flow_G8.vtu                |
+-----------------------------------------------------------------------+
+-----------------------------------------------------------------------------+
|  Inner_Iter|     Min CFL|     Max CFL|      rms[P]|  Cauchy[CD]|          CD|
+-----------------------------------------------------------------------------+
|        9010|  4.5064e+01|  4.5064e+01|  -10.280030|  1.5203e-06|    0.031993|
|        9020|  4.5064e+01|  4.5064e+01|  -10.282137|  1.5128e-06|    0.031992|
|        9030|  4.5064e+01|  4.5064e+01|  -10.284254|  1.5058e-06|    0.031990|
|        9040|  4.5064e+01|  4.5064e+01|  -10.286379|  1.4987e-06|    0.031989|
|        9050|  4.5064e+01|  4.5064e+01|  -10.288510|  1.4913e-06|    0.031988|
|        9060|  4.5064e+01|  4.5064e+01|  -10.290664|  1.4836e-06|    0.031986|
|        9070|  4.5064e+01|  4.5064e+01|  -10.292845|  1.4762e-06|    0.031985|
|        9080|  4.5064e+01|  4.5064e+01|  -10.295035|  1.4693e-06|    0.031983|
|        9090|  4.5064e+01|  4.5064e+01|  -10.297204|  1.4627e-06|    0.031982|
|        9100|  4.5064e+01|  4.5064e+01|  -10.299330|  1.4559e-06|    0.031981|
|        9110|  4.5064e+01|  4.5064e+01|  -10.301418|  1.4488e-06|    0.031979|
|        9120|  4.5064e+01|  4.5064e+01|  -10.303502|  1.4417e-06|    0.031978|
|        9130|  4.5064e+01|  4.5064e+01|  -10.305614|  1.4348e-06|    0.031977|
|        9140|  4.5064e+01|  4.5064e+01|  -10.307766|  1.4279e-06|    0.031975|
|        9150|  4.5064e+01|  4.5064e+01|  -10.309948|  1.4210e-06|    0.031974|
|        9160|  4.5064e+01|  4.5064e+01|  -10.312145|  1.4140e-06|    0.031973|
|        9170|  4.5064e+01|  4.5064e+01|  -10.314332|  1.4070e-06|    0.031971|
|        9180|  4.5064e+01|  4.5064e+01|  -10.316500|  1.4002e-06|    0.031970|
|        9190|  4.5064e+01|  4.5064e+01|  -10.318647|  1.3935e-06|    0.031969|
|        9200|  4.5064e+01|  4.5064e+01|  -10.320777|  1.3869e-06|    0.031967|
+-----------------------------------------------------------------------+
|        File Writing Summary       |              Filename             |
+-----------------------------------------------------------------------+
|SU2 binary restart                 |restart_flow_G8.dat                |
|Paraview                           |flow_G8.vtu                        |
|Paraview surface                   |surface_flow_G8.vtu                |
+-----------------------------------------------------------------------+
+-----------------------------------------------------------------------------+
|  Inner_Iter|     Min CFL|     Max CFL|      rms[P]|  Cauchy[CD]|          CD|
+-----------------------------------------------------------------------------+
|        9210|  4.5064e+01|  4.5064e+01|  -10.322897|  1.3802e-06|    0.031966|
|        9220|  4.5064e+01|  4.5064e+01|  -10.325017|  1.3734e-06|    0.031965|
|        9230|  4.5064e+01|  4.5064e+01|  -10.327139|  1.3666e-06|    0.031963|
|        9240|  4.5064e+01|  4.5064e+01|  -10.329275|  1.3598e-06|    0.031962|
|        9250|  4.5064e+01|  4.5064e+01|  -10.331429|  1.3532e-06|    0.031961|
|        9260|  4.5064e+01|  4.5064e+01|  -10.333598|  1.3467e-06|    0.031960|
|        9270|  4.5064e+01|  4.5064e+01|  -10.335770|  1.3403e-06|    0.031958|
|        9280|  4.5064e+01|  4.5064e+01|  -10.337932|  1.3338e-06|    0.031957|
|        9290|  4.5064e+01|  4.5064e+01|  -10.340077|  1.3272e-06|    0.031956|
|        9300|  4.5064e+01|  4.5064e+01|  -10.342206|  1.3206e-06|    0.031955|
|        9310|  4.5064e+01|  4.5064e+01|  -10.344331|  1.3141e-06|    0.031953|
|        9320|  4.5064e+01|  4.5064e+01|  -10.346457|  1.3077e-06|    0.031952|
|        9330|  4.5064e+01|  4.5064e+01|  -10.348596|  1.3012e-06|    0.031951|
|        9340|  4.5064e+01|  4.5064e+01|  -10.350741|  1.2948e-06|    0.031950|
|        9350|  4.5064e+01|  4.5064e+01|  -10.352889|  1.2884e-06|    0.031948|
|        9360|  4.5064e+01|  4.5064e+01|  -10.355036|  1.2822e-06|    0.031947|
|        9370|  4.5064e+01|  4.5064e+01|  -10.357181|  1.2761e-06|    0.031946|
|        9380|  4.5064e+01|  4.5064e+01|  -10.359321|  1.2699e-06|    0.031945|
|        9390|  4.5064e+01|  4.5064e+01|  -10.361455|  1.2636e-06|    0.031944|
|        9400|  4.5064e+01|  4.5064e+01|  -10.363585|  1.2573e-06|    0.031942|
+-----------------------------------------------------------------------+
|        File Writing Summary       |              Filename             |
+-----------------------------------------------------------------------+
|SU2 binary restart                 |restart_flow_G8.dat                |
|Paraview                           |flow_G8.vtu                        |
|Paraview surface                   |surface_flow_G8.vtu                |
+-----------------------------------------------------------------------+
+-----------------------------------------------------------------------------+
|  Inner_Iter|     Min CFL|     Max CFL|      rms[P]|  Cauchy[CD]|          CD|
+-----------------------------------------------------------------------------+
|        9410|  4.5064e+01|  4.5064e+01|  -10.365718|  1.2510e-06|    0.031941|
|        9420|  4.5064e+01|  4.5064e+01|  -10.367856|  1.2448e-06|    0.031940|
|        9430|  4.5064e+01|  4.5064e+01|  -10.369997|  1.2387e-06|    0.031939|
|        9440|  4.5064e+01|  4.5064e+01|  -10.372136|  1.2326e-06|    0.031938|
|        9450|  4.5064e+01|  4.5064e+01|  -10.374270|  1.2266e-06|    0.031937|
|        9460|  4.5064e+01|  4.5064e+01|  -10.376397|  1.2206e-06|    0.031936|
|        9470|  4.5064e+01|  4.5064e+01|  -10.378521|  1.2146e-06|    0.031934|
|        9480|  4.5064e+01|  4.5064e+01|  -10.380647|  1.2086e-06|    0.031933|
|        9490|  4.5064e+01|  4.5064e+01|  -10.382781|  1.2026e-06|    0.031932|
|        9500|  4.5064e+01|  4.5064e+01|  -10.384919|  1.1967e-06|    0.031931|
|        9510|  4.5064e+01|  4.5064e+01|  -10.387062|  1.1907e-06|    0.031930|
|        9520|  4.5064e+01|  4.5064e+01|  -10.389202|  1.1848e-06|    0.031929|
|        9530|  4.5064e+01|  4.5064e+01|  -10.391339|  1.1790e-06|    0.031928|
|        9540|  4.5064e+01|  4.5064e+01|  -10.393471|  1.1732e-06|    0.031927|
|        9550|  4.5064e+01|  4.5064e+01|  -10.395601|  1.1674e-06|    0.031925|
|        9560|  4.5064e+01|  4.5064e+01|  -10.397730|  1.1616e-06|    0.031924|
|        9570|  4.5064e+01|  4.5064e+01|  -10.399859|  1.1558e-06|    0.031923|
|        9580|  4.5064e+01|  4.5064e+01|  -10.401994|  1.1501e-06|    0.031922|
|        9590|  4.5064e+01|  4.5064e+01|  -10.404130|  1.1444e-06|    0.031921|
|        9600|  4.5064e+01|  4.5064e+01|  -10.406266|  1.1387e-06|    0.031920|
+-----------------------------------------------------------------------+
|        File Writing Summary       |              Filename             |
+-----------------------------------------------------------------------+
|SU2 binary restart                 |restart_flow_G8.dat                |
|Paraview                           |flow_G8.vtu                        |
|Paraview surface                   |surface_flow_G8.vtu                |
+-----------------------------------------------------------------------+
+-----------------------------------------------------------------------------+
|  Inner_Iter|     Min CFL|     Max CFL|      rms[P]|  Cauchy[CD]|          CD|
+-----------------------------------------------------------------------------+
|        9610|  4.5064e+01|  4.5064e+01|  -10.408401|  1.1331e-06|    0.031919|
|        9620|  4.5064e+01|  4.5064e+01|  -10.410535|  1.1275e-06|    0.031918|
|        9630|  4.5064e+01|  4.5064e+01|  -10.412665|  1.1219e-06|    0.031917|
|        9640|  4.5064e+01|  4.5064e+01|  -10.414802|  1.1164e-06|    0.031916|
|        9650|  4.5064e+01|  4.5064e+01|  -10.416941|  1.1108e-06|    0.031915|
|        9660|  4.5064e+01|  4.5064e+01|  -10.419087|  1.1053e-06|    0.031914|
|        9670|  4.5064e+01|  4.5064e+01|  -10.421233|  1.0998e-06|    0.031913|
|        9680|  4.5064e+01|  4.5064e+01|  -10.423380|  1.0944e-06|    0.031912|
|        9690|  4.5064e+01|  4.5064e+01|  -10.425526|  1.0889e-06|    0.031911|
|        9700|  4.5064e+01|  4.5064e+01|  -10.427669|  1.0835e-06|    0.031910|
|        9710|  4.5064e+01|  4.5064e+01|  -10.429810|  1.0782e-06|    0.031909|
|        9720|  4.5064e+01|  4.5064e+01|  -10.431946|  1.0728e-06|    0.031908|
|        9730|  4.5064e+01|  4.5064e+01|  -10.434079|  1.0675e-06|    0.031907|
|        9740|  4.5064e+01|  4.5064e+01|  -10.436210|  1.0622e-06|    0.031906|
|        9750|  4.5064e+01|  4.5064e+01|  -10.438340|  1.0569e-06|    0.031905|
|        9760|  4.5064e+01|  4.5064e+01|  -10.440472|  1.0517e-06|    0.031904|
|        9770|  4.5064e+01|  4.5064e+01|  -10.442604|  1.0465e-06|    0.031903|
|        9780|  4.5064e+01|  4.5064e+01|  -10.444737|  1.0413e-06|    0.031902|
|        9790|  4.5064e+01|  4.5064e+01|  -10.446872|  1.0361e-06|    0.031901|
|        9800|  4.5064e+01|  4.5064e+01|  -10.449008|  1.0310e-06|    0.031900|
+-----------------------------------------------------------------------+
|        File Writing Summary       |              Filename             |
+-----------------------------------------------------------------------+
|SU2 binary restart                 |restart_flow_G8.dat                |
|Paraview                           |flow_G8.vtu                        |
|Paraview surface                   |surface_flow_G8.vtu                |
+-----------------------------------------------------------------------+
+-----------------------------------------------------------------------------+
|  Inner_Iter|     Min CFL|     Max CFL|      rms[P]|  Cauchy[CD]|          CD|
+-----------------------------------------------------------------------------+
|        9810|  4.5064e+01|  4.5064e+01|  -10.451142|  1.0259e-06|    0.031899|
|        9820|  4.5064e+01|  4.5064e+01|  -10.453278|  1.0208e-06|    0.031898|
|        9830|  4.5064e+01|  4.5064e+01|  -10.455413|  1.0157e-06|    0.031897|
|        9840|  4.5064e+01|  4.5064e+01|  -10.457548|  1.0107e-06|    0.031896|
|        9850|  4.5064e+01|  4.5064e+01|  -10.459681|  1.0057e-06|    0.031895|
|        9860|  4.5064e+01|  4.5064e+01|  -10.461815|  1.0007e-06|    0.031894|
|        9862|  4.5064e+01|  4.5064e+01|  -10.462242|  9.9969e-07|    0.031894|

----------------------------- Solver Exit -------------------------------
All convergence criteria satisfied.
+-----------------------------------------------------------------------+
|      Convergence Field     |     Value    |   Criterion  |  Converged |
+-----------------------------------------------------------------------+
|                      rms[P]|      -10.4622|          < -9|         Yes|
|                  Cauchy[CD]|   9.99688e-07|       < 1e-06|         Yes|
+-----------------------------------------------------------------------+
-------------------------------------------------------------------------
+-----------------------------------------------------------------------+
|        File Writing Summary       |              Filename             |
+-----------------------------------------------------------------------+
|SU2 binary restart                 |restart_flow_G8.dat                |
|Paraview                           |flow_G8.vtu                        |
|Paraview surface                   |surface_flow_G8.vtu                |
+-----------------------------------------------------------------------+

------------------------- Solver Postprocessing -------------------------
Deleted CNumerics container.
Deleted CIntegration container.
Deleted CSolver container.
Deleted CIteration container.
Deleted CInterface container.
Deleted CGeometry container.
Deleted CFreeFormDefBox class.
Deleted CSurfaceMovement class.
Deleted CVolumetricMovement class.
Deleted CConfig container.
Deleted nInst container.
Deleted COutput class.
-------------------------------------------------------------------------

------------------------- Exit Success (SU2_CFD) ------------------------

