
-------------------------------------------------------------------------
|    ___ _   _ ___                                                      |
|   / __| | | |_  )   Release 7.4.0 "Blackbird"                         |
|   \__ \ |_| |/ /                                                      |
|   |___/\___//___|   Suite (Computational Fluid Dynamics Code)         |
|                                                                       |
-------------------------------------------------------------------------
| SU2 Project Website: https://su2code.github.io                        |
|                                                                       |
| The SU2 Project is maintained by the SU2 Foundation                   |
| (http://su2foundation.org)                                            |
-------------------------------------------------------------------------
| Copyright 2012-2022, SU2 Contributors                                 |
|                                                                       |
| SU2 is free software; you can redistribute it and/or                  |
| modify it under the terms of the GNU Lesser General Public            |
| License as published by the Free Software Foundation; either          |
| version 2.1 of the License, or (at your option) any later version.    |
|                                                                       |
| SU2 is distributed in the hope that it will be useful,                |
| but WITHOUT ANY WARRANTY; without even the implied warranty of        |
| MERCHANTABILITY or FITNESS FOR A PARTICULAR PURPOSE. See the GNU      |
| Lesser General Public License for more details.                       |
|                                                                       |
| You should have received a copy of the GNU Lesser General Public      |
| License along with SU2. If not, see <http://www.gnu.org/licenses/>.   |
-------------------------------------------------------------------------

Parsing config file for zone 0

----------------- Physical Case Definition ( Zone 0 ) -------------------
Incompressible RANS equations.
Turbulence model: Spalart-Allmaras-noft2
Hybrid RANS/LES: No Hybrid RANS/LES
Reading and writing binary SU2 native restart files.
Read flow solution from: ../../O1/case_A145/restart_flow_aoa145.dat.
Non-Dimensional simulation using intialization values.
The reference area is 1 m^2.
The semi-span will be computed using the max y(3D) value.
The reference length is 1.00898 m.
Reference origin for moment evaluation is (-0.756, 0, 0).
Surface(s) where the force coefficients are evaluated: AIRFOIL.

Surface(s) plotted in the output file: AIRFOIL.
Input mesh file name: ../meshG5/meshG5.su2

--------------- Space Numerical Integration ( Zone 0 ) ------------------
Flux difference splitting (FDS) upwind scheme for the flow inviscid terms.
Second order integration in space, with slope limiter.
Venkatakrishnan slope-limiting method, with constant: 0.056.
The reference element size is: 1. 
Average of gradients with correction (viscous flow terms).
Average of gradients with correction (viscous turbulence terms).
Gradient for upwind reconstruction: unweighted Least-Squares.
Gradient for viscous and source terms: Green-Gauss.

--------------- Time Numerical Integration  ( Zone 0 ) ------------------
Local time stepping (steady state simulation).
Euler implicit method for the flow equations.
FGMRES is used for solving the linear system.
Using a ILU(0) preconditioning.
Convergence criteria of the linear solver: 1e-06.
Max number of linear iterations: 10.
CFL adaptation. Factor down: 0.1, factor up: 1.2,
                lower limit: 1, upper limit: 1000,
                acceptable linear residual: 0.001.
Courant-Friedrichs-Lewy number:        2
Euler implicit time integration for the turbulence model.

------------------ Convergence Criteria  ( Zone 0 ) ---------------------
Maximum number of solver subiterations: 9999.
Begin convergence monitoring at iteration 10.
Residual minimum value: 1e-9.
Cauchy series min. value: 1e-06.
Number of Cauchy elements: 250.
Begin windowed time average at iteration 0.

-------------------- Output Information ( Zone 0 ) ----------------------
File writing frequency: 
+------------------------------------+
|                     File| Frequency|
+------------------------------------+
|                  RESTART|       200|
|                 PARAVIEW|       200|
|         SURFACE_PARAVIEW|       200|
+------------------------------------+
Writing the convergence history file every 1 inner iterations.
Writing the screen convergence history every 10 inner iterations.
The tabular file format is CSV (.csv).
Convergence history file name: history_aoa145.
Forces breakdown file name: forces_breakdown.dat.
Surface file name: surface_flow_aoa145.
Volume file name: flow_aoa145.
Restart file name: restart_flow_aoa145.dat.

------------- Config File Boundary Information ( Zone 0 ) ---------------
+-----------------------------------------------------------------------+
|                        Marker Type|                        Marker Name|
+-----------------------------------------------------------------------+
|                          Far-field|                           FARFIELD|
+-----------------------------------------------------------------------+
|                     Heat flux wall|                            AIRFOIL|
+-----------------------------------------------------------------------+

-------------------- Output Preprocessing ( Zone 0 ) --------------------

WARNING: SURFACE_PRESSURE_DROP can only be computed for at least 2 surfaces (outlet, inlet, ...)

Screen output fields: INNER_ITER, MIN_CFL, MAX_CFL, RMS_PRESSURE, CAUCHY_DRAG, DRAG
History output group(s): INNER_ITER, MIN_CFL, MAX_CFL, RMS_RES, LIFT, DRAG, MOMENT_Z, CAUCHY
Convergence field(s): RMS_PRESSURE, DRAG
Warning: No (valid) fields chosen for time convergence monitoring. Time convergence monitoring inactive.
Volume output fields: COORDINATES, SOLUTION, PRIMITIVE, RESIDUAL, MESH_QUALITY

------------------- Geometry Preprocessing ( Zone 0 ) -------------------
Two dimensional problem.
361479 grid points before partitioning.
360180 volume elements before partitioning.
2 surface markers.
724 boundary elements in index 0 (Marker = AIRFOIL).
1874 boundary elements in index 1 (Marker = FARFIELD).
Executing the partitioning functions.
Building the graph adjacency structure.
Calling ParMETIS... graph partitioning complete (4050 edge cuts).
Distributing ParMETIS coloring.
Rebalancing vertices.
Rebalancing volume element connectivity.
Rebalancing markers and surface elements.
369602 vertices including ghost points. 
364230 interior elements including halo cells. 
364230 quadrilaterals.
Establishing MPI communication patterns.
Setting point connectivity.
Renumbering points (Reverse Cuthill McKee Ordering).
Recomputing point connectivity.
Setting element connectivity.
Checking the numerical grid orientation.
All volume elements are correctly orientend.
There has been a re-orientation of 1305 LINE surface elements.
Identifying edges and vertices.
Setting the control volume structure.
Area of the computational grid: 103207.
Searching for the closest normal neighbors to the surfaces.
Storing a mapping from global to local point index.
Compute the surface curvature.
Max K: 227502. Mean K: 205.598. Standard deviation K: 4719.73.
Checking for periodicity.
Computing mesh quality statistics for the dual control volumes.
+--------------------------------------------------------------+
|           Mesh Quality Metric|        Minimum|        Maximum|
+--------------------------------------------------------------+
|    Orthogonality Angle (deg.)|        75.9136|             90|
|     CV Face Area Aspect Ratio|        1.00002|    3.17894e+06|
|           CV Sub-Volume Ratio|              1|         387.07|
+--------------------------------------------------------------+
Finding max control volume width.
Communicating number of neighbors.
Wetted area = 2.0597 m.
Area projection in the x-plane = 0.121116 m, y-plane = 1.00881 m.
Max. coordinate in the x-direction = 1.00898 m, y-direction = 0.0759837 m.
Min. coordinate in the x-direction = 4.86614e-06 m, y-direction = -0.0451345 m.
Computing wall distances.

-------------------- Solver Preprocessing ( Zone 0 ) --------------------
 Warning: There is no restart file (flow.meta).
 Computation will continue without updating metadata parameters.
Incompressible flow: rho_ref, vel_ref, and temp_ref
are based on the initial values, p_ref = rho_ref*vel_ref^2.
Force coefficients computed using initial values.
The reference area for force coeffs. is 1 m^2.
The reference length for force coeffs. is 1.00898 m.
The pressure is decomposed into thermodynamic and dynamic components.
The initial value of the dynamic pressure is 0.
Mach number: 0.0276748, computed using the Bulk modulus.
For external flows, the initial state is imposed at the far-field.
Angle of attack (deg): 14.4998, computed using the initial velocity.
Side slip angle (deg): 0, computed using the initial velocity.
Reynolds number per meter: 595002, computed using initial values.
Reynolds number is a byproduct of inputs only (not used internally).
SI units only. The grid should be dimensional (meters).
No energy equation.

-- Models:
+------------------------------------------------------------------------------+
|          Viscosity Model|        Conductivity Model|              Fluid Model|
+------------------------------------------------------------------------------+
|       CONSTANT_VISCOSITY|          CONSTANT_PRANDTL|         CONSTANT_DENSITY|
+------------------------------------------------------------------------------+
-- Fluid properties:
+------------------------------------------------------------------------------+
|                  Name|    Dim. value|    Ref. value|      Unit|Non-dim. value|
+------------------------------------------------------------------------------+
|             Viscosity|      1.92e-05|        11.424|   N.s/m^2|   1.68067e-06|
+------------------------------------------------------------------------------+
|        Prandtl (Lam.)|             -|             -|         -|          0.72|
|       Prandtl (Turb.)|             -|             -|         -|           0.9|
+------------------------------------------------------------------------------+
|          Bulk Modulus|        142000|             1|        Pa|        142000|
+------------------------------------------------------------------------------+
-- Initial and free-stream conditions:
+------------------------------------------------------------------------------+
|                  Name|    Dim. value|    Ref. value|      Unit|Non-dim. value|
+------------------------------------------------------------------------------+
|      Dynamic Pressure|             0|       108.757|        Pa|             0|
|        Total Pressure|       54.3786|       108.757|        Pa|           0.5|
|               Density|           1.2|           1.2|    kg/m^3|             1|
|            Velocity-X|        9.2168|       9.52003|       m/s|      0.968148|
|            Velocity-Y|        2.3836|       9.52003|       m/s|      0.250377|
|    Velocity Magnitude|       9.52003|       9.52003|       m/s|             1|
+------------------------------------------------------------------------------+
|             Viscosity|      1.92e-05|        11.424|   N.s/m^2|   1.68067e-06|
|          Conductivity|             -|       3.59317|   W/m^2.K|             -|
|     Turb. Kin. Energy|       1.35946|        90.631|   m^2/s^2|         0.015|
|     Spec. Dissipation|       8496.65|       9.52003|       1/s|       892.503|
+------------------------------------------------------------------------------+
|           Mach Number|             -|             -|         -|     0.0276748|
|       Reynolds Number|             -|             -|         -|        595002|
+------------------------------------------------------------------------------+
Initialize Jacobian structure (Navier-Stokes). MG level: 0.
Initialize Jacobian structure (SA model).

------------------- Numerics Preprocessing ( Zone 0 ) -------------------

----------------- Integration Preprocessing ( Zone 0 ) ------------------

------------------- Iteration Preprocessing ( Zone 0 ) ------------------
Euler/Navier-Stokes/RANS fluid iteration.

------------------------------ Begin Solver -----------------------------

Simulation Run using the Single-zone Driver
+-----------------------------------------------------------------------------+
|  Inner_Iter|     Min CFL|     Max CFL|      rms[P]|  Cauchy[CD]|          CD|
+-----------------------------------------------------------------------------+
|           0|  2.4000e+00|  2.4000e+00|   -6.408415|  1.0000e+00|    0.116892|
|          10|  1.4860e+01|  1.4860e+01|   -6.376218|  8.4738e-05|    0.114445|
|          20|  5.3247e+01|  5.3247e+01|   -6.764868|  1.5980e-03|    0.075851|
|          30|  1.9079e+01|  1.9079e+01|   -6.839265|  1.8826e-03|    0.068735|
|          40|  9.8445e+00|  9.8445e+00|   -6.697433|  2.0058e-03|    0.071814|
|          50|  6.0954e+01|  6.0954e+01|   -6.767974|  2.0598e-03|    0.073165|
|          60|  3.1451e+01|  3.1451e+01|   -6.843036|  2.0744e-03|    0.073445|
|          70|  1.6228e+01|  1.6228e+01|   -6.963162|  2.1363e-03|    0.071897|
|          80|  8.3733e+00|  8.3733e+00|   -6.810116|  2.1888e-03|    0.070822|
|          90|  5.1845e+01|  5.1845e+01|   -6.925089|  2.2209e-03|    0.071625|
|         100|  2.6751e+01|  2.6751e+01|   -7.014498|  2.2889e-03|    0.073325|
|         110|  6.6565e+01|  6.6565e+01|   -6.990170|  2.3420e-03|    0.074225|
|         120|  2.3852e+01|  2.3852e+01|   -7.081570|  2.3912e-03|    0.072995|
|         130|  1.2307e+01|  1.2307e+01|   -7.117184|  2.4541e-03|    0.071421|
|         140|  5.2917e+00|  5.2917e+00|   -7.093772|  2.5091e-03|    0.070047|
|         150|  3.2765e+01|  3.2765e+01|   -7.094850|  2.5226e-03|    0.069711|
|         160|  4.7182e+01|  4.7182e+01|   -7.144555|  2.5430e-03|    0.069989|
|         170|  4.7182e+01|  4.7182e+01|   -7.132844|  2.6007e-03|    0.071431|
|         180|  4.7182e+01|  4.7182e+01|   -7.130583|  2.6259e-03|    0.071842|
|         190|  4.7182e+01|  4.7182e+01|   -7.195686|  2.6860e-03|    0.070338|
|         200|  6.7942e+00|  6.7942e+00|   -7.232421|  2.7257e-03|    0.069347|
+-----------------------------------------------------------------------+
|        File Writing Summary       |              Filename             |
+-----------------------------------------------------------------------+
|SU2 binary restart                 |restart_flow_aoa145.dat            |
|Paraview                           |flow_aoa145.vtu                    |
|Paraview surface                   |surface_flow_aoa145.vtu            |
+-----------------------------------------------------------------------+
+-----------------------------------------------------------------------------+
|  Inner_Iter|     Min CFL|     Max CFL|      rms[P]|  Cauchy[CD]|          CD|
+-----------------------------------------------------------------------------+
|         210|  4.2068e+01|  4.2068e+01|   -7.219813|  2.7300e-03|    0.069438|
|         220|  5.0481e+01|  5.0481e+01|   -7.222020|  2.7753e-03|    0.070571|
|         230|  8.7231e+00|  8.7231e+00|   -7.226084|  2.7882e-03|    0.070872|
|         240|  5.4011e+01|  5.4011e+01|   -7.231655|  2.7974e-03|    0.070642|
|         250|  2.7869e+01|  2.7869e+01|   -7.242590|  2.8090e-03|    0.070354|
|         260|  4.8157e+01|  4.8157e+01|   -7.253147|  2.7588e-03|    0.069491|
|         270|  4.8157e+01|  4.8157e+01|   -7.224408|  1.2766e-03|    0.068714|
|         280|  2.0707e+01|  2.0707e+01|   -7.240725|  1.0057e-03|    0.068371|
|         290|  1.0684e+01|  1.0684e+01|   -7.270616|  8.9741e-04|    0.067998|
|         300|  5.5128e+00|  5.5128e+00|   -7.308099|  8.6113e-04|    0.067554|
|         310|  3.4134e+01|  3.4134e+01|   -7.331169|  8.5527e-04|    0.067337|
|         320|  4.9153e+01|  4.9153e+01|   -7.321300|  8.1342e-04|    0.066836|
|         330|  4.9153e+01|  4.9153e+01|   -7.291612|  7.6887e-04|    0.066636|
|         340|  4.9153e+01|  4.9153e+01|   -7.312775|  7.5278e-04|    0.066236|
|         350|  2.1135e+01|  2.1135e+01|   -7.350719|  6.9600e-04|    0.065955|
|         360|  1.0905e+01|  1.0905e+01|   -7.391343|  6.6195e-04|    0.065480|
|         370|  4.6890e+01|  4.6890e+01|   -7.399433|  6.3695e-04|    0.064875|
|         380|  4.6890e+01|  4.6890e+01|   -7.336704|  6.1017e-04|    0.063970|
|         390|  4.6890e+01|  4.6890e+01|   -7.358178|  5.7577e-04|    0.063456|
|         400|  4.6890e+01|  4.6890e+01|   -7.459844|  5.7536e-04|    0.063130|
+-----------------------------------------------------------------------+
|        File Writing Summary       |              Filename             |
+-----------------------------------------------------------------------+
|SU2 binary restart                 |restart_flow_aoa145.dat            |
|Paraview                           |flow_aoa145.vtu                    |
|Paraview surface                   |surface_flow_aoa145.vtu            |
+-----------------------------------------------------------------------+
+-----------------------------------------------------------------------------+
|  Inner_Iter|     Min CFL|     Max CFL|      rms[P]|  Cauchy[CD]|          CD|
+-----------------------------------------------------------------------------+
|         410|  1.1668e+01|  1.1668e+01|   -7.454509|  5.6781e-04|    0.062807|
|         420|  6.0203e+00|  6.0203e+00|   -7.415392|  5.2365e-04|    0.062469|
|         430|  3.7276e+01|  3.7276e+01|   -7.407681|  5.0785e-04|    0.062235|
|         440|  1.9234e+01|  1.9234e+01|   -7.404130|  4.6033e-04|    0.061919|
|         450|  4.7859e+01|  4.7859e+01|   -7.424625|  4.4226e-04|    0.061379|
|         460|  1.7149e+01|  1.7149e+01|   -7.480534|  4.5029e-04|    0.061070|
|         470|  8.8484e+00|  8.8484e+00|   -7.472686|  4.1558e-04|    0.060805|
|         480|  5.4787e+01|  5.4787e+01|   -7.493540|  4.1216e-04|    0.060568|
|         490|  2.8269e+01|  2.8269e+01|   -7.481306|  4.0965e-04|    0.060401|
|         500|  4.8849e+01|  4.8849e+01|   -7.446247|  4.1406e-04|    0.060002|
|         510|  4.8849e+01|  4.8849e+01|   -7.504656|  3.9224e-04|    0.059685|
|         520|  1.2155e+01|  1.2155e+01|   -7.575931|  3.6784e-04|    0.059518|
|         530|  6.2718e+00|  6.2718e+00|   -7.570367|  3.5988e-04|    0.059374|
|         540|  3.8833e+01|  3.8833e+01|   -7.570325|  3.4920e-04|    0.059268|
|         550|  2.0037e+01|  2.0037e+01|   -7.541171|  3.3827e-04|    0.059097|
|         560|  1.0339e+01|  1.0339e+01|   -7.469598|  3.4021e-04|    0.058832|
|         570|  5.3345e+01|  5.3345e+01|   -7.492371|  3.3092e-04|    0.058563|
|         580|  5.3345e+01|  5.3345e+01|   -7.506788|  3.4044e-04|    0.058125|
|         590|  2.7525e+01|  2.7525e+01|   -7.521287|  3.2936e-04|    0.058002|
|         600|  5.7076e+01|  5.7076e+01|   -7.469218|  3.2600e-04|    0.057805|
+-----------------------------------------------------------------------+
|        File Writing Summary       |              Filename             |
+-----------------------------------------------------------------------+
|SU2 binary restart                 |restart_flow_aoa145.dat            |
|Paraview                           |flow_aoa145.vtu                    |
|Paraview surface                   |surface_flow_aoa145.vtu            |
+-----------------------------------------------------------------------+
+-----------------------------------------------------------------------------+
|  Inner_Iter|     Min CFL|     Max CFL|      rms[P]|  Cauchy[CD]|          CD|
+-----------------------------------------------------------------------------+
|         610|  5.7076e+01|  5.7076e+01|   -7.550667|  3.1491e-04|    0.057607|
|         620|  5.7076e+01|  5.7076e+01|   -7.608191|  2.9805e-04|    0.057423|
|         630|  5.7076e+01|  5.7076e+01|   -7.580046|  2.6848e-04|    0.057258|
|         640|  5.7076e+01|  5.7076e+01|   -7.602111|  2.5595e-04|    0.057058|
|         650|  5.7076e+01|  5.7076e+01|   -7.582525|  2.5064e-04|    0.056864|
|         660|  2.0451e+01|  2.0451e+01|   -7.644938|  2.4049e-04|    0.056795|
|         670|  1.0552e+01|  1.0552e+01|   -7.541663|  2.2851e-04|    0.056756|
|         680|  6.5338e+01|  6.5338e+01|   -7.630584|  2.1968e-04|    0.056743|
|         690|  3.3713e+01|  3.3713e+01|   -7.691341|  2.0725e-04|    0.056745|
|         700|  5.8256e+01|  5.8256e+01|   -7.627100|  1.8685e-04|    0.056774|
|         710|  5.8256e+01|  5.8256e+01|   -7.626380|  1.7624e-04|    0.056818|
|         720|  2.0874e+01|  2.0874e+01|   -7.722363|  1.6626e-04|    0.056834|
|         730|  1.0771e+01|  1.0771e+01|   -7.672262|  1.5732e-04|    0.056847|
|         740|  5.5574e+01|  5.5574e+01|   -7.730183|  1.5098e-04|    0.056856|
|         750|  5.5574e+01|  5.5574e+01|   -7.695595|  1.3551e-04|    0.056868|
|         760|  5.5574e+01|  5.5574e+01|   -7.694561|  1.2464e-04|    0.056914|
|         770|  5.5574e+01|  5.5574e+01|   -7.696724|  1.2241e-04|    0.057025|
|         780|  5.5574e+01|  5.5574e+01|   -7.693355|  1.2256e-04|    0.057172|
|         790|  5.5574e+01|  5.5574e+01|   -7.718578|  1.2402e-04|    0.057315|
|         800|  1.3829e+01|  1.3829e+01|   -7.762810|  1.2016e-04|    0.057389|
+-----------------------------------------------------------------------+
|        File Writing Summary       |              Filename             |
+-----------------------------------------------------------------------+
|SU2 binary restart                 |restart_flow_aoa145.dat            |
|Paraview                           |flow_aoa145.vtu                    |
|Paraview surface                   |surface_flow_aoa145.vtu            |
+-----------------------------------------------------------------------+
+-----------------------------------------------------------------------------+
|  Inner_Iter|     Min CFL|     Max CFL|      rms[P]|  Cauchy[CD]|          CD|
+-----------------------------------------------------------------------------+
|         810|  7.1353e+00|  7.1353e+00|   -7.726347|  1.1215e-04|    0.057454|
|         820|  4.4180e+01|  4.4180e+01|   -7.736590|  1.0288e-04|    0.057491|
|         830|  5.3016e+01|  5.3016e+01|   -7.702621|  8.9669e-05|    0.057599|
|         840|  5.3016e+01|  5.3016e+01|   -7.693886|  8.9686e-05|    0.057723|
|         850|  5.3016e+01|  5.3016e+01|   -7.681198|  8.7397e-05|    0.057863|
|         860|  9.1611e+00|  9.1611e+00|   -7.632859|  8.4482e-05|    0.057988|
|         870|  5.6723e+01|  5.6723e+01|   -7.692440|  7.9962e-05|    0.058058|
|         880|  2.9268e+01|  2.9268e+01|   -7.706209|  7.5158e-05|    0.058103|
|         890|  1.5102e+01|  1.5102e+01|   -7.706999|  6.9922e-05|    0.058173|
|         900|  5.4112e+01|  5.4112e+01|   -7.666299|  6.5887e-05|    0.058265|
|         910|  5.4112e+01|  5.4112e+01|   -7.653010|  6.8232e-05|    0.058393|
|         920|  5.4112e+01|  5.4112e+01|   -7.648600|  7.1433e-05|    0.058512|
|         930|  1.3465e+01|  1.3465e+01|   -7.675645|  7.4099e-05|    0.058592|
|         940|  6.9475e+00|  6.9475e+00|   -7.649078|  7.6596e-05|    0.058659|
|         950|  4.3017e+01|  4.3017e+01|   -7.676094|  7.6950e-05|    0.058698|
|         960|  2.2196e+01|  2.2196e+01|   -7.685136|  7.7214e-05|    0.058748|
|         970|  5.5230e+01|  5.5230e+01|   -7.643763|  8.0360e-05|    0.058843|
|         980|  5.5230e+01|  5.5230e+01|   -7.625023|  8.4216e-05|    0.058953|
|         990|  5.5230e+01|  5.5230e+01|   -7.616555|  8.7639e-05|    0.059047|
|        1000|  7.9532e+00|  7.9532e+00|   -7.615630|  9.0282e-05|    0.059125|
+-----------------------------------------------------------------------+
|        File Writing Summary       |              Filename             |
+-----------------------------------------------------------------------+
|SU2 binary restart                 |restart_flow_aoa145.dat            |
|Paraview                           |flow_aoa145.vtu                    |
|Paraview surface                   |surface_flow_aoa145.vtu            |
+-----------------------------------------------------------------------+
+-----------------------------------------------------------------------------+
|  Inner_Iter|     Min CFL|     Max CFL|      rms[P]|  Cauchy[CD]|          CD|
+-----------------------------------------------------------------------------+
|        1010|  4.9244e+01|  4.9244e+01|   -7.645641|  8.9784e-05|    0.059158|
|        1020|  2.5409e+01|  2.5409e+01|   -7.661206|  8.6484e-05|    0.059187|
|        1030|  1.3110e+01|  1.3110e+01|   -7.657933|  8.2174e-05|    0.059226|
|        1040|  5.6372e+01|  5.6372e+01|   -7.652395|  7.8290e-05|    0.059272|
|        1050|  5.6372e+01|  5.6372e+01|   -7.650111|  7.7932e-05|    0.059337|
|        1060|  5.6372e+01|  5.6372e+01|   -7.652704|  7.7557e-05|    0.059393|
|        1070|  8.1176e+00|  8.1176e+00|   -7.659723|  7.7761e-05|    0.059435|
|        1080|  5.0262e+01|  5.0262e+01|   -7.685167|  7.4192e-05|    0.059454|
|        1090|  2.5934e+01|  2.5934e+01|   -7.700416|  6.9771e-05|    0.059467|
|        1100|  1.3381e+01|  1.3381e+01|   -7.703091|  6.4856e-05|    0.059484|
|        1110|  5.7538e+01|  5.7538e+01|   -7.711314|  6.0582e-05|    0.059502|
|        1120|  5.7538e+01|  5.7538e+01|   -7.727000|  5.8507e-05|    0.059521|
|        1130|  8.2854e+00|  8.2854e+00|   -7.741564|  5.7210e-05|    0.059534|
|        1140|  5.1301e+01|  5.1301e+01|   -7.765599|  5.4754e-05|    0.059542|
|        1150|  2.6470e+01|  2.6470e+01|   -7.776769|  5.1249e-05|    0.059546|
|        1160|  1.3658e+01|  1.3658e+01|   -7.772240|  4.6351e-05|    0.059551|
|        1170|  5.8727e+01|  5.8727e+01|   -7.778920|  4.1854e-05|    0.059554|
|        1180|  5.8727e+01|  5.8727e+01|   -7.785156|  3.9170e-05|    0.059541|
|        1190|  5.8727e+01|  5.8727e+01|   -7.795009|  3.7425e-05|    0.059517|
|        1200|  5.8727e+01|  5.8727e+01|   -7.800844|  3.6948e-05|    0.059491|
+-----------------------------------------------------------------------+
|        File Writing Summary       |              Filename             |
+-----------------------------------------------------------------------+
|SU2 binary restart                 |restart_flow_aoa145.dat            |
|Paraview                           |flow_aoa145.vtu                    |
|Paraview surface                   |surface_flow_aoa145.vtu            |
+-----------------------------------------------------------------------+
+-----------------------------------------------------------------------------+
|  Inner_Iter|     Min CFL|     Max CFL|      rms[P]|  Cauchy[CD]|          CD|
+-----------------------------------------------------------------------------+
|        1210|  5.8727e+01|  5.8727e+01|   -7.803578|  3.5941e-05|    0.059466|
|        1220|  5.8727e+01|  5.8727e+01|   -7.802671|  3.3359e-05|    0.059436|
|        1230|  5.8727e+01|  5.8727e+01|   -7.799021|  3.0658e-05|    0.059394|
|        1240|  5.8727e+01|  5.8727e+01|   -7.795201|  2.9028e-05|    0.059340|
|        1250|  5.8727e+01|  5.8727e+01|   -7.792954|  2.8295e-05|    0.059280|
|        1260|  5.8727e+01|  5.8727e+01|   -7.791635|  2.9453e-05|    0.059218|
|        1270|  5.8727e+01|  5.8727e+01|   -7.789276|  3.0916e-05|    0.059153|
|        1280|  5.8727e+01|  5.8727e+01|   -7.785328|  3.2137e-05|    0.059083|
|        1290|  5.8727e+01|  5.8727e+01|   -7.781560|  3.3398e-05|    0.059005|
|        1300|  5.8727e+01|  5.8727e+01|   -7.779293|  3.4200e-05|    0.058920|
|        1310|  5.8727e+01|  5.8727e+01|   -7.778406|  3.5594e-05|    0.058830|
|        1320|  5.8727e+01|  5.8727e+01|   -7.778273|  3.7637e-05|    0.058736|
|        1330|  5.8727e+01|  5.8727e+01|   -7.778787|  4.0752e-05|    0.058640|
|        1340|  5.8727e+01|  5.8727e+01|   -7.780140|  4.4256e-05|    0.058539|
|        1350|  3.0302e+01|  3.0302e+01|   -7.800366|  4.5421e-05|    0.058493|
|        1360|  1.5635e+01|  1.5635e+01|   -7.805071|  4.6460e-05|    0.058449|
|        1370|  8.0674e+00|  8.0674e+00|   -7.787266|  4.8188e-05|    0.058387|
|        1380|  4.9951e+01|  4.9951e+01|   -7.800030|  4.9341e-05|    0.058345|
|        1390|  5.9941e+01|  5.9941e+01|   -7.790758|  5.3762e-05|    0.058227|
|        1400|  5.9941e+01|  5.9941e+01|   -7.793129|  5.8480e-05|    0.058104|
+-----------------------------------------------------------------------+
|        File Writing Summary       |              Filename             |
+-----------------------------------------------------------------------+
|SU2 binary restart                 |restart_flow_aoa145.dat            |
|Paraview                           |flow_aoa145.vtu                    |
|Paraview surface                   |surface_flow_aoa145.vtu            |
+-----------------------------------------------------------------------+
+-----------------------------------------------------------------------------+
|  Inner_Iter|     Min CFL|     Max CFL|      rms[P]|  Cauchy[CD]|          CD|
+-----------------------------------------------------------------------------+
|        1410|  2.5774e+01|  2.5774e+01|   -7.807152|  6.0710e-05|    0.058043|
|        1420|  1.3299e+01|  1.3299e+01|   -7.806328|  6.2661e-05|    0.057988|
|        1430|  6.8618e+00|  6.8618e+00|   -7.808190|  6.4994e-05|    0.057916|
|        1440|  4.2487e+01|  4.2487e+01|   -7.817335|  6.5657e-05|    0.057876|
|        1450|  6.1181e+01|  6.1181e+01|   -7.815084|  6.9734e-05|    0.057748|
|        1460|  6.1181e+01|  6.1181e+01|   -7.825041|  7.4348e-05|    0.057607|
|        1470|  1.5224e+01|  1.5224e+01|   -7.834564|  7.7046e-05|    0.057509|
|        1480|  7.8551e+00|  7.8551e+00|   -7.845003|  7.8107e-05|    0.057441|
|        1490|  4.8637e+01|  4.8637e+01|   -7.857669|  7.7871e-05|    0.057394|
|        1500|  2.5095e+01|  2.5095e+01|   -7.862535|  7.7977e-05|    0.057331|
|        1510|  6.2446e+01|  6.2446e+01|   -7.869999|  8.0198e-05|    0.057213|
|        1520|  6.2446e+01|  6.2446e+01|   -7.891228|  8.3775e-05|    0.057058|
|        1530|  6.2446e+01|  6.2446e+01|   -7.915073|  8.7120e-05|    0.056905|
|        1540|  6.2446e+01|  6.2446e+01|   -7.940689|  9.0091e-05|    0.056753|
|        1550|  6.2446e+01|  6.2446e+01|   -7.968827|  9.2850e-05|    0.056599|
|        1560|  6.2446e+01|  6.2446e+01|   -7.998924|  9.5499e-05|    0.056442|
|        1570|  6.2446e+01|  6.2446e+01|   -8.029068|  9.7967e-05|    0.056287|
|        1580|  6.2446e+01|  6.2446e+01|   -8.058269|  1.0033e-04|    0.056132|
|        1590|  6.2446e+01|  6.2446e+01|   -8.085741|  1.0259e-04|    0.055974|
|        1600|  6.2446e+01|  6.2446e+01|   -8.109974|  1.0703e-04|    0.055817|
+-----------------------------------------------------------------------+
|        File Writing Summary       |              Filename             |
+-----------------------------------------------------------------------+
|SU2 binary restart                 |restart_flow_aoa145.dat            |
|Paraview                           |flow_aoa145.vtu                    |
|Paraview surface                   |surface_flow_aoa145.vtu            |
+-----------------------------------------------------------------------+
+-----------------------------------------------------------------------------+
|  Inner_Iter|     Min CFL|     Max CFL|      rms[P]|  Cauchy[CD]|          CD|
+-----------------------------------------------------------------------------+
|        1610|  6.2446e+01|  6.2446e+01|   -8.129401|  1.1146e-04|    0.055663|
|        1620|  6.2446e+01|  6.2446e+01|   -8.142580|  1.1510e-04|    0.055510|
|        1630|  6.2446e+01|  6.2446e+01|   -8.148440|  1.1952e-04|    0.055358|
|        1640|  6.2446e+01|  6.2446e+01|   -8.147170|  1.2084e-04|    0.055206|
|        1650|  6.2446e+01|  6.2446e+01|   -8.140053|  1.2190e-04|    0.055056|
|        1660|  6.2446e+01|  6.2446e+01|   -8.128756|  1.2534e-04|    0.054909|
|        1670|  6.2446e+01|  6.2446e+01|   -8.114978|  1.2894e-04|    0.054764|
|        1680|  6.2446e+01|  6.2446e+01|   -8.100049|  1.3179e-04|    0.054622|
|        1690|  6.2446e+01|  6.2446e+01|   -8.085228|  1.3581e-04|    0.054481|
|        1700|  6.2446e+01|  6.2446e+01|   -8.072038|  1.3622e-04|    0.054342|
|        1710|  6.2446e+01|  6.2446e+01|   -8.061539|  1.3606e-04|    0.054206|
|        1720|  6.2446e+01|  6.2446e+01|   -8.053931|  1.3751e-04|    0.054072|
|        1730|  6.2446e+01|  6.2446e+01|   -8.049209|  1.4004e-04|    0.053940|
|        1740|  6.2446e+01|  6.2446e+01|   -8.047758|  1.4335e-04|    0.053810|
|        1750|  6.2446e+01|  6.2446e+01|   -8.050013|  1.4597e-04|    0.053682|
|        1760|  6.2446e+01|  6.2446e+01|   -8.056049|  1.4629e-04|    0.053556|
|        1770|  6.2446e+01|  6.2446e+01|   -8.065828|  1.4508e-04|    0.053431|
|        1780|  3.2221e+01|  3.2221e+01|   -8.088087|  1.4044e-04|    0.053394|
|        1790|  1.6625e+01|  1.6625e+01|   -8.089313|  1.3657e-04|    0.053339|
|        1800|  5.9571e+01|  5.9571e+01|   -8.094008|  1.3345e-04|    0.053263|
+-----------------------------------------------------------------------+
|        File Writing Summary       |              Filename             |
+-----------------------------------------------------------------------+
|SU2 binary restart                 |restart_flow_aoa145.dat            |
|Paraview                           |flow_aoa145.vtu                    |
|Paraview surface                   |surface_flow_aoa145.vtu            |
+-----------------------------------------------------------------------+
+-----------------------------------------------------------------------------+
|  Inner_Iter|     Min CFL|     Max CFL|      rms[P]|  Cauchy[CD]|          CD|
+-----------------------------------------------------------------------------+
|        1810|  5.9571e+01|  5.9571e+01|   -8.109246|  1.3183e-04|    0.053146|
|        1820|  5.9571e+01|  5.9571e+01|   -8.129467|  1.3025e-04|    0.053031|
|        1830|  5.9571e+01|  5.9571e+01|   -8.151552|  1.2862e-04|    0.052916|
|        1840|  5.9571e+01|  5.9571e+01|   -8.177721|  1.2677e-04|    0.052805|
|        1850|  5.9571e+01|  5.9571e+01|   -8.205805|  1.2495e-04|    0.052694|
|        1860|  2.5614e+01|  2.5614e+01|   -8.238948|  1.2038e-04|    0.052653|
|        1870|  1.3216e+01|  1.3216e+01|   -8.243132|  1.1633e-04|    0.052601|
|        1880|  5.6828e+01|  5.6828e+01|   -8.253420|  1.1264e-04|    0.052542|
|        1890|  5.6828e+01|  5.6828e+01|   -8.278394|  1.1075e-04|    0.052437|
|        1900|  5.6828e+01|  5.6828e+01|   -8.302297|  1.0897e-04|    0.052332|
|        1910|  5.6828e+01|  5.6828e+01|   -8.320112|  1.0732e-04|    0.052226|
|        1920|  5.6828e+01|  5.6828e+01|   -8.335764|  1.0562e-04|    0.052124|
|        1930|  5.6828e+01|  5.6828e+01|   -8.345363|  1.0393e-04|    0.052023|
|        1940|  5.6828e+01|  5.6828e+01|   -8.350991|  1.0232e-04|    0.051923|
|        1950|  5.6828e+01|  5.6828e+01|   -8.352160|  1.0075e-04|    0.051823|
|        1960|  5.6828e+01|  5.6828e+01|   -8.350585|  9.9263e-05|    0.051724|
|        1970|  5.6828e+01|  5.6828e+01|   -8.347141|  9.7862e-05|    0.051625|
|        1980|  5.6828e+01|  5.6828e+01|   -8.343532|  9.6489e-05|    0.051528|
|        1990|  5.6828e+01|  5.6828e+01|   -8.340329|  9.5115e-05|    0.051432|
|        2000|  5.6828e+01|  5.6828e+01|   -8.337738|  9.3765e-05|    0.051338|
+-----------------------------------------------------------------------+
|        File Writing Summary       |              Filename             |
+-----------------------------------------------------------------------+
|SU2 binary restart                 |restart_flow_aoa145.dat            |
|Paraview                           |flow_aoa145.vtu                    |
|Paraview surface                   |surface_flow_aoa145.vtu            |
+-----------------------------------------------------------------------+
+-----------------------------------------------------------------------------+
|  Inner_Iter|     Min CFL|     Max CFL|      rms[P]|  Cauchy[CD]|          CD|
+-----------------------------------------------------------------------------+
|        2010|  5.6828e+01|  5.6828e+01|   -8.336173|  9.2461e-05|    0.051244|
|        2020|  5.6828e+01|  5.6828e+01|   -8.336456|  9.1186e-05|    0.051152|
|        2030|  5.6828e+01|  5.6828e+01|   -8.338611|  9.3320e-05|    0.051061|
|        2040|  2.0363e+01|  2.0363e+01|   -8.356992|  9.2683e-05|    0.051022|
|        2050|  1.0507e+01|  1.0507e+01|   -8.335552|  9.1393e-05|    0.050978|
|        2060|  5.4212e+01|  5.4212e+01|   -8.358887|  8.8413e-05|    0.050936|
|        2070|  5.4212e+01|  5.4212e+01|   -8.354556|  8.7121e-05|    0.050853|
|        2080|  5.4212e+01|  5.4212e+01|   -8.364192|  8.5825e-05|    0.050770|
|        2090|  5.4212e+01|  5.4212e+01|   -8.369468|  8.4690e-05|    0.050688|
|        2100|  5.4212e+01|  5.4212e+01|   -8.379517|  8.3480e-05|    0.050607|
|        2110|  5.4212e+01|  5.4212e+01|   -8.389601|  8.5012e-05|    0.050528|
|        2120|  5.4212e+01|  5.4212e+01|   -8.401222|  8.6082e-05|    0.050449|
|        2130|  2.3310e+01|  2.3310e+01|   -8.425711|  8.4829e-05|    0.050421|
|        2140|  1.2028e+01|  1.2028e+01|   -8.422583|  8.2120e-05|    0.050384|
|        2150|  5.1716e+01|  5.1716e+01|   -8.424551|  7.9600e-05|    0.050342|
|        2160|  5.1716e+01|  5.1716e+01|   -8.431535|  7.8275e-05|    0.050270|
|        2170|  5.1716e+01|  5.1716e+01|   -8.442696|  7.7103e-05|    0.050196|
|        2180|  5.1716e+01|  5.1716e+01|   -8.446577|  7.6034e-05|    0.050122|
|        2190|  5.1716e+01|  5.1716e+01|   -8.453436|  7.4917e-05|    0.050050|
|        2200|  5.1716e+01|  5.1716e+01|   -8.456726|  7.3790e-05|    0.049978|
+-----------------------------------------------------------------------+
|        File Writing Summary       |              Filename             |
+-----------------------------------------------------------------------+
|SU2 binary restart                 |restart_flow_aoa145.dat            |
|Paraview                           |flow_aoa145.vtu                    |
|Paraview surface                   |surface_flow_aoa145.vtu            |
+-----------------------------------------------------------------------+
+-----------------------------------------------------------------------------+
|  Inner_Iter|     Min CFL|     Max CFL|      rms[P]|  Cauchy[CD]|          CD|
+-----------------------------------------------------------------------------+
|        2210|  5.1716e+01|  5.1716e+01|   -8.459158|  7.2693e-05|    0.049907|
|        2220|  5.1716e+01|  5.1716e+01|   -8.459016|  7.1606e-05|    0.049835|
|        2230|  5.1716e+01|  5.1716e+01|   -8.457631|  7.0563e-05|    0.049764|
|        2240|  5.1716e+01|  5.1716e+01|   -8.455494|  6.9622e-05|    0.049691|
|        2250|  5.1716e+01|  5.1716e+01|   -8.452622|  6.8772e-05|    0.049618|
|        2260|  5.1716e+01|  5.1716e+01|   -8.448924|  6.7956e-05|    0.049545|
|        2270|  5.1716e+01|  5.1716e+01|   -8.445097|  6.7171e-05|    0.049472|
|        2280|  5.1716e+01|  5.1716e+01|   -8.442392|  6.6454e-05|    0.049399|
|        2290|  7.4471e+00|  7.4471e+00|   -8.422273|  6.7324e-05|    0.049339|
|        2300|  4.6111e+01|  4.6111e+01|   -8.455587|  6.6679e-05|    0.049311|
|        2310|  2.3792e+01|  2.3792e+01|   -8.458942|  6.6105e-05|    0.049284|
|        2320|  4.9335e+01|  4.9335e+01|   -8.444692|  6.5179e-05|    0.049223|
|        2330|  4.9335e+01|  4.9335e+01|   -8.444187|  6.4714e-05|    0.049153|
|        2340|  4.9335e+01|  4.9335e+01|   -8.447454|  6.4255e-05|    0.049081|
|        2350|  4.9335e+01|  4.9335e+01|   -8.449898|  6.3917e-05|    0.049009|
|        2360|  4.9335e+01|  4.9335e+01|   -8.455349|  6.3645e-05|    0.048937|
|        2370|  4.9335e+01|  4.9335e+01|   -8.460811|  6.3388e-05|    0.048865|
|        2380|  4.9335e+01|  4.9335e+01|   -8.468374|  6.5134e-05|    0.048792|
|        2390|  4.9335e+01|  4.9335e+01|   -8.476572|  6.6553e-05|    0.048720|
|        2400|  4.9335e+01|  4.9335e+01|   -8.485415|  6.7737e-05|    0.048649|
+-----------------------------------------------------------------------+
|        File Writing Summary       |              Filename             |
+-----------------------------------------------------------------------+
|SU2 binary restart                 |restart_flow_aoa145.dat            |
|Paraview                           |flow_aoa145.vtu                    |
|Paraview surface                   |surface_flow_aoa145.vtu            |
+-----------------------------------------------------------------------+
+-----------------------------------------------------------------------------+
|  Inner_Iter|     Min CFL|     Max CFL|      rms[P]|  Cauchy[CD]|          CD|
+-----------------------------------------------------------------------------+
|        2410|  4.9335e+01|  4.9335e+01|   -8.494748|  6.7707e-05|    0.048577|
|        2420|  4.9335e+01|  4.9335e+01|   -8.504621|  6.7677e-05|    0.048504|
|        2430|  5.9202e+00|  5.9202e+00|   -8.514878|  6.7354e-05|    0.048439|
|        2440|  3.6657e+01|  3.6657e+01|   -8.535831|  6.5358e-05|    0.048416|
|        2450|  1.8914e+01|  1.8914e+01|   -8.540592|  6.3677e-05|    0.048387|
|        2460|  4.7064e+01|  4.7064e+01|   -8.531843|  6.2974e-05|    0.048333|
|        2470|  4.7064e+01|  4.7064e+01|   -8.541389|  6.2817e-05|    0.048265|
|        2480|  4.7064e+01|  4.7064e+01|   -8.550262|  6.2665e-05|    0.048197|
|        2490|  4.7064e+01|  4.7064e+01|   -8.555476|  6.2516e-05|    0.048128|
|        2500|  4.7064e+01|  4.7064e+01|   -8.562528|  6.2318e-05|    0.048060|
|        2510|  4.7064e+01|  4.7064e+01|   -8.567466|  6.2089e-05|    0.047993|
|        2520|  4.7064e+01|  4.7064e+01|   -8.572012|  6.1852e-05|    0.047926|
|        2530|  4.7064e+01|  4.7064e+01|   -8.575393|  6.1590e-05|    0.047860|
|        2540|  4.7064e+01|  4.7064e+01|   -8.578060|  6.1808e-05|    0.047794|
|        2550|  4.7064e+01|  4.7064e+01|   -8.580206|  6.3329e-05|    0.047728|
|        2560|  4.7064e+01|  4.7064e+01|   -8.581716|  6.4860e-05|    0.047662|
|        2570|  4.7064e+01|  4.7064e+01|   -8.583073|  6.5094e-05|    0.047596|
|        2580|  4.7064e+01|  4.7064e+01|   -8.584177|  6.4877e-05|    0.047531|
|        2590|  4.7064e+01|  4.7064e+01|   -8.585123|  6.4612e-05|    0.047466|
|        2600|  4.7064e+01|  4.7064e+01|   -8.585947|  6.4286e-05|    0.047402|
+-----------------------------------------------------------------------+
|        File Writing Summary       |              Filename             |
+-----------------------------------------------------------------------+
|SU2 binary restart                 |restart_flow_aoa145.dat            |
|Paraview                           |flow_aoa145.vtu                    |
|Paraview surface                   |surface_flow_aoa145.vtu            |
+-----------------------------------------------------------------------+
+-----------------------------------------------------------------------------+
|  Inner_Iter|     Min CFL|     Max CFL|      rms[P]|  Cauchy[CD]|          CD|
+-----------------------------------------------------------------------------+
|        2610|  4.7064e+01|  4.7064e+01|   -8.587019|  6.3969e-05|    0.047337|
|        2620|  4.7064e+01|  4.7064e+01|   -8.588676|  6.3657e-05|    0.047273|
|        2630|  4.7064e+01|  4.7064e+01|   -8.590821|  6.3329e-05|    0.047209|
|        2640|  4.7064e+01|  4.7064e+01|   -8.593176|  6.2995e-05|    0.047146|
|        2650|  4.7064e+01|  4.7064e+01|   -8.595739|  6.2670e-05|    0.047082|
|        2660|  4.7064e+01|  4.7064e+01|   -8.598903|  6.2324e-05|    0.047019|
|        2670|  6.7772e+00|  6.7772e+00|   -8.583929|  6.1500e-05|    0.046967|
|        2680|  4.1963e+01|  4.1963e+01|   -8.619385|  5.9820e-05|    0.046943|
|        2690|  2.1652e+01|  2.1652e+01|   -8.624323|  5.9849e-05|    0.046920|
|        2700|  4.4897e+01|  4.4897e+01|   -8.614194|  6.0712e-05|    0.046869|
|        2710|  4.4897e+01|  4.4897e+01|   -8.619553|  6.0942e-05|    0.046809|
|        2720|  4.4897e+01|  4.4897e+01|   -8.626020|  6.0614e-05|    0.046749|
|        2730|  4.4897e+01|  4.4897e+01|   -8.629892|  6.0304e-05|    0.046689|
|        2740|  4.4897e+01|  4.4897e+01|   -8.636280|  5.9958e-05|    0.046629|
|        2750|  4.4897e+01|  4.4897e+01|   -8.642157|  5.9610e-05|    0.046570|
|        2760|  4.4897e+01|  4.4897e+01|   -8.648234|  5.9282e-05|    0.046511|
|        2770|  4.4897e+01|  4.4897e+01|   -8.654590|  5.8967e-05|    0.046452|
|        2780|  4.4897e+01|  4.4897e+01|   -8.660494|  5.8653e-05|    0.046393|
|        2790|  4.4897e+01|  4.4897e+01|   -8.666273|  5.8350e-05|    0.046335|
|        2800|  4.4897e+01|  4.4897e+01|   -8.671381|  5.8064e-05|    0.046276|
+-----------------------------------------------------------------------+
|        File Writing Summary       |              Filename             |
+-----------------------------------------------------------------------+
|SU2 binary restart                 |restart_flow_aoa145.dat            |
|Paraview                           |flow_aoa145.vtu                    |
|Paraview surface                   |surface_flow_aoa145.vtu            |
+-----------------------------------------------------------------------+
+-----------------------------------------------------------------------------+
|  Inner_Iter|     Min CFL|     Max CFL|      rms[P]|  Cauchy[CD]|          CD|
+-----------------------------------------------------------------------------+
|        2810|  4.4897e+01|  4.4897e+01|   -8.675885|  5.7774e-05|    0.046218|
|        2820|  4.4897e+01|  4.4897e+01|   -8.679620|  5.7474e-05|    0.046159|
|        2830|  4.4897e+01|  4.4897e+01|   -8.682583|  5.7180e-05|    0.046101|
|        2840|  4.4897e+01|  4.4897e+01|   -8.685192|  5.6900e-05|    0.046043|
|        2850|  4.4897e+01|  4.4897e+01|   -8.687492|  5.6626e-05|    0.045986|
|        2860|  4.4897e+01|  4.4897e+01|   -8.689333|  5.6350e-05|    0.045929|
|        2870|  4.4897e+01|  4.4897e+01|   -8.690484|  5.6071e-05|    0.045871|
|        2880|  4.4897e+01|  4.4897e+01|   -8.691116|  5.5791e-05|    0.045815|
|        2890|  4.4897e+01|  4.4897e+01|   -8.691615|  5.5508e-05|    0.045758|
|        2900|  4.4897e+01|  4.4897e+01|   -8.692222|  5.5223e-05|    0.045701|
|        2910|  4.4897e+01|  4.4897e+01|   -8.692906|  5.4936e-05|    0.045645|
|        2920|  5.3877e+00|  5.3877e+00|   -8.693682|  5.4896e-05|    0.045595|
|        2930|  3.3359e+01|  3.3359e+01|   -8.711952|  5.4650e-05|    0.045577|
|        2940|  1.7213e+01|  1.7213e+01|   -8.713255|  5.4622e-05|    0.045554|
|        2950|  4.2830e+01|  4.2830e+01|   -8.700026|  5.4262e-05|    0.045512|
|        2960|  4.2830e+01|  4.2830e+01|   -8.700181|  5.3973e-05|    0.045460|
|        2970|  4.2830e+01|  4.2830e+01|   -8.702850|  5.3681e-05|    0.045407|
|        2980|  4.2830e+01|  4.2830e+01|   -8.704092|  5.3378e-05|    0.045355|
|        2990|  4.2830e+01|  4.2830e+01|   -8.705956|  5.3079e-05|    0.045302|
|        3000|  4.2830e+01|  4.2830e+01|   -8.708476|  5.2784e-05|    0.045250|
+-----------------------------------------------------------------------+
|        File Writing Summary       |              Filename             |
+-----------------------------------------------------------------------+
|SU2 binary restart                 |restart_flow_aoa145.dat            |
|Paraview                           |flow_aoa145.vtu                    |
|Paraview surface                   |surface_flow_aoa145.vtu            |
+-----------------------------------------------------------------------+
+-----------------------------------------------------------------------------+
|  Inner_Iter|     Min CFL|     Max CFL|      rms[P]|  Cauchy[CD]|          CD|
+-----------------------------------------------------------------------------+
|        3010|  4.2830e+01|  4.2830e+01|   -8.711142|  5.2484e-05|    0.045199|
|        3020|  4.2830e+01|  4.2830e+01|   -8.714652|  5.2178e-05|    0.045147|
|        3030|  4.2830e+01|  4.2830e+01|   -8.718185|  5.1874e-05|    0.045096|
|        3040|  4.2830e+01|  4.2830e+01|   -8.721812|  5.1568e-05|    0.045046|
|        3050|  4.2830e+01|  4.2830e+01|   -8.725479|  5.1249e-05|    0.044995|
|        3060|  4.2830e+01|  4.2830e+01|   -8.729326|  5.0927e-05|    0.044944|
|        3070|  4.2830e+01|  4.2830e+01|   -8.733335|  5.0614e-05|    0.044894|
|        3080|  4.2830e+01|  4.2830e+01|   -8.737253|  5.0305e-05|    0.044844|
|        3090|  4.2830e+01|  4.2830e+01|   -8.741053|  4.9996e-05|    0.044794|
|        3100|  4.2830e+01|  4.2830e+01|   -8.744721|  4.9687e-05|    0.044744|
|        3110|  4.2830e+01|  4.2830e+01|   -8.748308|  4.9379e-05|    0.044694|
|        3120|  4.2830e+01|  4.2830e+01|   -8.751758|  4.9072e-05|    0.044645|
|        3130|  4.2830e+01|  4.2830e+01|   -8.754879|  4.8768e-05|    0.044595|
|        3140|  4.2830e+01|  4.2830e+01|   -8.757629|  4.8469e-05|    0.044546|
|        3150|  4.2830e+01|  4.2830e+01|   -8.760083|  4.8175e-05|    0.044497|
|        3160|  4.2830e+01|  4.2830e+01|   -8.762317|  4.7883e-05|    0.044448|
|        3170|  4.2830e+01|  4.2830e+01|   -8.764384|  4.7794e-05|    0.044400|
|        3180|  4.2830e+01|  4.2830e+01|   -8.766285|  4.9022e-05|    0.044351|
|        3190|  4.2830e+01|  4.2830e+01|   -8.768001|  5.0041e-05|    0.044303|
|        3200|  4.2830e+01|  4.2830e+01|   -8.769543|  5.0293e-05|    0.044255|
+-----------------------------------------------------------------------+
|        File Writing Summary       |              Filename             |
+-----------------------------------------------------------------------+
|SU2 binary restart                 |restart_flow_aoa145.dat            |
|Paraview                           |flow_aoa145.vtu                    |
|Paraview surface                   |surface_flow_aoa145.vtu            |
+-----------------------------------------------------------------------+
+-----------------------------------------------------------------------------+
|  Inner_Iter|     Min CFL|     Max CFL|      rms[P]|  Cauchy[CD]|          CD|
+-----------------------------------------------------------------------------+
|        3210|  8.8813e+00|  8.8813e+00|   -8.773138|  4.9449e-05|    0.044223|
|        3220|  4.5826e+00|  4.5826e+00|   -8.778408|  4.8400e-05|    0.044197|
|        3230|  2.8374e+01|  2.8374e+01|   -8.789821|  4.6838e-05|    0.044184|
|        3240|  4.0858e+01|  4.0858e+01|   -8.776427|  4.6450e-05|    0.044141|
|        3250|  4.0858e+01|  4.0858e+01|   -8.777055|  4.6178e-05|    0.044096|
|        3260|  4.0858e+01|  4.0858e+01|   -8.778303|  4.5910e-05|    0.044051|
|        3270|  4.0858e+01|  4.0858e+01|   -8.778702|  4.5657e-05|    0.044006|
|        3280|  4.0858e+01|  4.0858e+01|   -8.779612|  4.5411e-05|    0.043961|
|        3290|  4.0858e+01|  4.0858e+01|   -8.780902|  4.5174e-05|    0.043916|
|        3300|  4.0858e+01|  4.0858e+01|   -8.782113|  4.4931e-05|    0.043872|
|        3310|  4.0858e+01|  4.0858e+01|   -8.783575|  4.4673e-05|    0.043828|
|        3320|  4.0858e+01|  4.0858e+01|   -8.785072|  4.4407e-05|    0.043784|
|        3330|  4.0858e+01|  4.0858e+01|   -8.786565|  4.4138e-05|    0.043740|
|        3340|  4.0858e+01|  4.0858e+01|   -8.788218|  4.3872e-05|    0.043697|
|        3350|  4.0858e+01|  4.0858e+01|   -8.790179|  4.3616e-05|    0.043653|
|        3360|  4.0858e+01|  4.0858e+01|   -8.792473|  4.3367e-05|    0.043610|
|        3370|  4.0858e+01|  4.0858e+01|   -8.794913|  4.3116e-05|    0.043567|
|        3380|  4.0858e+01|  4.0858e+01|   -8.797337|  4.2859e-05|    0.043524|
|        3390|  4.0858e+01|  4.0858e+01|   -8.799699|  4.2597e-05|    0.043481|
|        3400|  4.0858e+01|  4.0858e+01|   -8.802084|  4.2336e-05|    0.043439|
+-----------------------------------------------------------------------+
|        File Writing Summary       |              Filename             |
+-----------------------------------------------------------------------+
|SU2 binary restart                 |restart_flow_aoa145.dat            |
|Paraview                           |flow_aoa145.vtu                    |
|Paraview surface                   |surface_flow_aoa145.vtu            |
+-----------------------------------------------------------------------+
+-----------------------------------------------------------------------------+
|  Inner_Iter|     Min CFL|     Max CFL|      rms[P]|  Cauchy[CD]|          CD|
+-----------------------------------------------------------------------------+
|        3410|  4.0858e+01|  4.0858e+01|   -8.804600|  4.2075e-05|    0.043396|
|        3420|  4.0858e+01|  4.0858e+01|   -8.807206|  4.1816e-05|    0.043354|
|        3430|  4.0858e+01|  4.0858e+01|   -8.809808|  4.1560e-05|    0.043312|
|        3440|  4.0858e+01|  4.0858e+01|   -8.812393|  4.1303e-05|    0.043270|
|        3450|  4.0858e+01|  4.0858e+01|   -8.814903|  4.1043e-05|    0.043229|
|        3460|  4.0858e+01|  4.0858e+01|   -8.817256|  4.1444e-05|    0.043187|
|        3470|  4.0858e+01|  4.0858e+01|   -8.819392|  4.2049e-05|    0.043146|
|        3480|  4.0858e+01|  4.0858e+01|   -8.821366|  4.3156e-05|    0.043105|
|        3490|  4.0858e+01|  4.0858e+01|   -8.823342|  4.3090e-05|    0.043064|
|        3500|  4.0858e+01|  4.0858e+01|   -8.825413|  4.2917e-05|    0.043023|
|        3510|  4.0858e+01|  4.0858e+01|   -8.827535|  4.2751e-05|    0.042982|
|        3520|  4.0858e+01|  4.0858e+01|   -8.829517|  4.2573e-05|    0.042942|
|        3530|  4.0858e+01|  4.0858e+01|   -8.831215|  4.2391e-05|    0.042901|
|        3540|  4.0858e+01|  4.0858e+01|   -8.832494|  4.2211e-05|    0.042861|
|        3550|  4.0858e+01|  4.0858e+01|   -8.833103|  4.2038e-05|    0.042821|
|        3560|  4.0858e+01|  4.0858e+01|   -8.834107|  4.1870e-05|    0.042781|
|        3570|  4.0858e+01|  4.0858e+01|   -8.835288|  4.1705e-05|    0.042741|
|        3580|  4.0858e+01|  4.0858e+01|   -8.836750|  4.1548e-05|    0.042701|
|        3590|  4.0858e+01|  4.0858e+01|   -8.838373|  4.1395e-05|    0.042662|
|        3600|  4.0858e+01|  4.0858e+01|   -8.839992|  4.1234e-05|    0.042622|
+-----------------------------------------------------------------------+
|        File Writing Summary       |              Filename             |
+-----------------------------------------------------------------------+
|SU2 binary restart                 |restart_flow_aoa145.dat            |
|Paraview                           |flow_aoa145.vtu                    |
|Paraview surface                   |surface_flow_aoa145.vtu            |
+-----------------------------------------------------------------------+
+-----------------------------------------------------------------------------+
|  Inner_Iter|     Min CFL|     Max CFL|      rms[P]|  Cauchy[CD]|          CD|
+-----------------------------------------------------------------------------+
|        3610|  4.0858e+01|  4.0858e+01|   -8.841465|  4.1068e-05|    0.042583|
|        3620|  4.0858e+01|  4.0858e+01|   -8.842725|  4.0904e-05|    0.042544|
|        3630|  4.0858e+01|  4.0858e+01|   -8.843872|  4.0747e-05|    0.042505|
|        3640|  4.0858e+01|  4.0858e+01|   -8.845026|  4.0592e-05|    0.042466|
|        3650|  4.0858e+01|  4.0858e+01|   -8.846297|  4.0439e-05|    0.042428|
|        3660|  4.0858e+01|  4.0858e+01|   -8.847713|  4.0288e-05|    0.042389|
|        3670|  4.0858e+01|  4.0858e+01|   -8.849204|  4.0138e-05|    0.042351|
|        3680|  4.0858e+01|  4.0858e+01|   -8.850624|  3.9987e-05|    0.042313|
|        3690|  4.0858e+01|  4.0858e+01|   -8.851984|  3.9836e-05|    0.042274|
|        3700|  4.0858e+01|  4.0858e+01|   -8.853283|  3.9688e-05|    0.042237|
|        3710|  4.0858e+01|  4.0858e+01|   -8.854615|  3.9542e-05|    0.042199|
|        3720|  4.0858e+01|  4.0858e+01|   -8.855988|  3.9395e-05|    0.042161|
|        3730|  4.0858e+01|  4.0858e+01|   -8.857363|  3.9248e-05|    0.042124|
|        3740|  4.0858e+01|  4.0858e+01|   -8.858728|  3.9098e-05|    0.042086|
|        3750|  4.0858e+01|  4.0858e+01|   -8.860074|  3.8947e-05|    0.042049|
|        3760|  4.0858e+01|  4.0858e+01|   -8.861407|  3.8795e-05|    0.042012|
|        3770|  4.0858e+01|  4.0858e+01|   -8.862741|  3.8643e-05|    0.041976|
|        3780|  4.0858e+01|  4.0858e+01|   -8.864091|  3.8492e-05|    0.041939|
|        3790|  4.0858e+01|  4.0858e+01|   -8.865433|  3.8342e-05|    0.041902|
|        3800|  4.0858e+01|  4.0858e+01|   -8.866752|  3.8193e-05|    0.041866|
+-----------------------------------------------------------------------+
|        File Writing Summary       |              Filename             |
+-----------------------------------------------------------------------+
|SU2 binary restart                 |restart_flow_aoa145.dat            |
|Paraview                           |flow_aoa145.vtu                    |
|Paraview surface                   |surface_flow_aoa145.vtu            |
+-----------------------------------------------------------------------+
+-----------------------------------------------------------------------------+
|  Inner_Iter|     Min CFL|     Max CFL|      rms[P]|  Cauchy[CD]|          CD|
+-----------------------------------------------------------------------------+
|        3810|  4.0858e+01|  4.0858e+01|   -8.868067|  3.8044e-05|    0.041830|
|        3820|  4.0858e+01|  4.0858e+01|   -8.869366|  3.7895e-05|    0.041794|
|        3830|  4.0858e+01|  4.0858e+01|   -8.870630|  3.7746e-05|    0.041758|
|        3840|  4.0858e+01|  4.0858e+01|   -8.871852|  3.7596e-05|    0.041722|
|        3850|  4.0858e+01|  4.0858e+01|   -8.873061|  3.7446e-05|    0.041686|
|        3860|  4.0858e+01|  4.0858e+01|   -8.874264|  3.7296e-05|    0.041651|
|        3870|  4.0858e+01|  4.0858e+01|   -8.875511|  3.7147e-05|    0.041615|
|        3880|  4.0858e+01|  4.0858e+01|   -8.876794|  3.6997e-05|    0.041580|
|        3890|  4.0858e+01|  4.0858e+01|   -8.878108|  3.6848e-05|    0.041545|
|        3900|  4.0858e+01|  4.0858e+01|   -8.879442|  3.6699e-05|    0.041510|
|        3910|  4.0858e+01|  4.0858e+01|   -8.880770|  3.6550e-05|    0.041475|
|        3920|  4.0858e+01|  4.0858e+01|   -8.882121|  3.6402e-05|    0.041441|
|        3930|  4.0858e+01|  4.0858e+01|   -8.883521|  3.6255e-05|    0.041406|
|        3940|  4.0858e+01|  4.0858e+01|   -8.885013|  3.6108e-05|    0.041372|
|        3950|  4.0858e+01|  4.0858e+01|   -8.886554|  3.5963e-05|    0.041337|
|        3960|  4.0858e+01|  4.0858e+01|   -8.888153|  3.5820e-05|    0.041303|
|        3970|  4.0858e+01|  4.0858e+01|   -8.889767|  3.5679e-05|    0.041269|
|        3980|  4.0858e+01|  4.0858e+01|   -8.891400|  3.5539e-05|    0.041235|
|        3990|  4.0858e+01|  4.0858e+01|   -8.893046|  3.5399e-05|    0.041202|
|        4000|  4.0858e+01|  4.0858e+01|   -8.894722|  3.5261e-05|    0.041168|
+-----------------------------------------------------------------------+
|        File Writing Summary       |              Filename             |
+-----------------------------------------------------------------------+
|SU2 binary restart                 |restart_flow_aoa145.dat            |
|Paraview                           |flow_aoa145.vtu                    |
|Paraview surface                   |surface_flow_aoa145.vtu            |
+-----------------------------------------------------------------------+
+-----------------------------------------------------------------------------+
|  Inner_Iter|     Min CFL|     Max CFL|      rms[P]|  Cauchy[CD]|          CD|
+-----------------------------------------------------------------------------+
|        4010|  4.0858e+01|  4.0858e+01|   -8.896421|  3.5123e-05|    0.041134|
|        4020|  4.0858e+01|  4.0858e+01|   -8.898133|  3.4986e-05|    0.041101|
|        4030|  4.0858e+01|  4.0858e+01|   -8.899858|  3.4848e-05|    0.041068|
|        4040|  4.0858e+01|  4.0858e+01|   -8.901611|  3.4712e-05|    0.041035|
|        4050|  4.0858e+01|  4.0858e+01|   -8.903393|  3.4575e-05|    0.041002|
|        4060|  4.0858e+01|  4.0858e+01|   -8.905174|  3.4439e-05|    0.040969|
|        4070|  4.0858e+01|  4.0858e+01|   -8.906963|  3.4303e-05|    0.040936|
|        4080|  4.0858e+01|  4.0858e+01|   -8.908743|  3.4167e-05|    0.040904|
|        4090|  4.0858e+01|  4.0858e+01|   -8.910511|  3.4033e-05|    0.040871|
|        4100|  4.0858e+01|  4.0858e+01|   -8.912250|  3.3899e-05|    0.040839|
|        4110|  4.0858e+01|  4.0858e+01|   -8.913958|  3.3766e-05|    0.040807|
|        4120|  4.0858e+01|  4.0858e+01|   -8.915620|  3.3634e-05|    0.040775|
|        4130|  4.0858e+01|  4.0858e+01|   -8.917267|  3.3503e-05|    0.040743|
|        4140|  4.0858e+01|  4.0858e+01|   -8.918911|  3.3372e-05|    0.040711|
|        4150|  4.0858e+01|  4.0858e+01|   -8.920512|  3.3240e-05|    0.040679|
|        4160|  4.0858e+01|  4.0858e+01|   -8.922087|  3.3109e-05|    0.040648|
|        4170|  4.0858e+01|  4.0858e+01|   -8.923618|  3.2977e-05|    0.040616|
|        4180|  4.0858e+01|  4.0858e+01|   -8.925129|  3.2845e-05|    0.040585|
|        4190|  4.0858e+01|  4.0858e+01|   -8.926608|  3.2712e-05|    0.040554|
|        4200|  4.0858e+01|  4.0858e+01|   -8.928079|  3.2579e-05|    0.040523|
+-----------------------------------------------------------------------+
|        File Writing Summary       |              Filename             |
+-----------------------------------------------------------------------+
|SU2 binary restart                 |restart_flow_aoa145.dat            |
|Paraview                           |flow_aoa145.vtu                    |
|Paraview surface                   |surface_flow_aoa145.vtu            |
+-----------------------------------------------------------------------+
+-----------------------------------------------------------------------------+
|  Inner_Iter|     Min CFL|     Max CFL|      rms[P]|  Cauchy[CD]|          CD|
+-----------------------------------------------------------------------------+
|        4210|  4.0858e+01|  4.0858e+01|   -8.929528|  3.2445e-05|    0.040492|
|        4220|  4.0858e+01|  4.0858e+01|   -8.930978|  3.2311e-05|    0.040461|
|        4230|  4.0858e+01|  4.0858e+01|   -8.932429|  3.2177e-05|    0.040431|
|        4240|  4.0858e+01|  4.0858e+01|   -8.933872|  3.2044e-05|    0.040400|
|        4250|  4.0858e+01|  4.0858e+01|   -8.935306|  3.1912e-05|    0.040370|
|        4260|  4.0858e+01|  4.0858e+01|   -8.936733|  3.1781e-05|    0.040340|
|        4270|  4.0858e+01|  4.0858e+01|   -8.938157|  3.1651e-05|    0.040310|
|        4280|  4.0858e+01|  4.0858e+01|   -8.939574|  3.1522e-05|    0.040280|
|        4290|  4.0858e+01|  4.0858e+01|   -8.940977|  3.1392e-05|    0.040250|
|        4300|  4.0858e+01|  4.0858e+01|   -8.942345|  3.1264e-05|    0.040220|
|        4310|  4.0858e+01|  4.0858e+01|   -8.943704|  3.1135e-05|    0.040190|
|        4320|  4.0858e+01|  4.0858e+01|   -8.945038|  3.1007e-05|    0.040161|
|        4330|  4.0858e+01|  4.0858e+01|   -8.946377|  3.0879e-05|    0.040132|
|        4340|  4.0858e+01|  4.0858e+01|   -8.947728|  3.0751e-05|    0.040102|
|        4350|  4.0858e+01|  4.0858e+01|   -8.949082|  3.0623e-05|    0.040073|
|        4360|  4.0858e+01|  4.0858e+01|   -8.950438|  3.0495e-05|    0.040044|
|        4370|  4.0858e+01|  4.0858e+01|   -8.951796|  3.0367e-05|    0.040015|
|        4380|  4.0858e+01|  4.0858e+01|   -8.953147|  3.0240e-05|    0.039987|
|        4390|  4.0858e+01|  4.0858e+01|   -8.954522|  3.0113e-05|    0.039958|
|        4400|  4.0858e+01|  4.0858e+01|   -8.955929|  2.9988e-05|    0.039930|
+-----------------------------------------------------------------------+
|        File Writing Summary       |              Filename             |
+-----------------------------------------------------------------------+
|SU2 binary restart                 |restart_flow_aoa145.dat            |
|Paraview                           |flow_aoa145.vtu                    |
|Paraview surface                   |surface_flow_aoa145.vtu            |
+-----------------------------------------------------------------------+
+-----------------------------------------------------------------------------+
|  Inner_Iter|     Min CFL|     Max CFL|      rms[P]|  Cauchy[CD]|          CD|
+-----------------------------------------------------------------------------+
|        4410|  4.0858e+01|  4.0858e+01|   -8.957329|  2.9864e-05|    0.039901|
|        4420|  4.0858e+01|  4.0858e+01|   -8.958733|  2.9740e-05|    0.039873|
|        4430|  4.0858e+01|  4.0858e+01|   -8.960119|  2.9618e-05|    0.039845|
|        4440|  4.0858e+01|  4.0858e+01|   -8.961490|  2.9497e-05|    0.039817|
|        4450|  4.0858e+01|  4.0858e+01|   -8.962840|  2.9376e-05|    0.039789|
|        4460|  4.0858e+01|  4.0858e+01|   -8.964225|  2.9256e-05|    0.039761|
|        4470|  4.0858e+01|  4.0858e+01|   -8.965608|  2.9136e-05|    0.039733|
|        4480|  4.0858e+01|  4.0858e+01|   -8.966988|  2.9016e-05|    0.039705|
|        4490|  4.0858e+01|  4.0858e+01|   -8.968372|  2.8897e-05|    0.039678|
|        4500|  4.0858e+01|  4.0858e+01|   -8.969775|  2.8777e-05|    0.039651|
|        4510|  4.0858e+01|  4.0858e+01|   -8.971197|  2.8657e-05|    0.039623|
|        4520|  4.0858e+01|  4.0858e+01|   -8.972641|  2.8537e-05|    0.039596|
|        4530|  4.0858e+01|  4.0858e+01|   -8.974117|  2.8417e-05|    0.039569|
|        4540|  4.0858e+01|  4.0858e+01|   -8.975598|  2.8298e-05|    0.039542|
|        4550|  4.0858e+01|  4.0858e+01|   -8.977084|  2.8178e-05|    0.039516|
|        4560|  4.0858e+01|  4.0858e+01|   -8.978588|  2.8060e-05|    0.039489|
|        4570|  4.0858e+01|  4.0858e+01|   -8.980095|  2.7942e-05|    0.039462|
|        4580|  4.0858e+01|  4.0858e+01|   -8.981612|  2.7825e-05|    0.039436|
|        4590|  4.0858e+01|  4.0858e+01|   -8.983137|  2.7709e-05|    0.039410|
|        4600|  4.0858e+01|  4.0858e+01|   -8.984661|  2.7594e-05|    0.039383|
+-----------------------------------------------------------------------+
|        File Writing Summary       |              Filename             |
+-----------------------------------------------------------------------+
|SU2 binary restart                 |restart_flow_aoa145.dat            |
|Paraview                           |flow_aoa145.vtu                    |
|Paraview surface                   |surface_flow_aoa145.vtu            |
+-----------------------------------------------------------------------+
+-----------------------------------------------------------------------------+
|  Inner_Iter|     Min CFL|     Max CFL|      rms[P]|  Cauchy[CD]|          CD|
+-----------------------------------------------------------------------------+
|        4610|  4.0858e+01|  4.0858e+01|   -8.986212|  2.7480e-05|    0.039357|
|        4620|  4.0858e+01|  4.0858e+01|   -8.987759|  2.7366e-05|    0.039331|
|        4630|  4.0858e+01|  4.0858e+01|   -8.989313|  2.7253e-05|    0.039305|
|        4640|  4.0858e+01|  4.0858e+01|   -8.990889|  2.7140e-05|    0.039280|
|        4650|  4.0858e+01|  4.0858e+01|   -8.992465|  2.7026e-05|    0.039254|
|        4660|  4.0858e+01|  4.0858e+01|   -8.994031|  2.6913e-05|    0.039228|
|        4670|  4.0858e+01|  4.0858e+01|   -8.995601|  2.6799e-05|    0.039203|
|        4680|  4.0858e+01|  4.0858e+01|   -8.997165|  2.6686e-05|    0.039177|
|        4690|  4.0858e+01|  4.0858e+01|   -8.998733|  2.6573e-05|    0.039152|
|        4700|  4.0858e+01|  4.0858e+01|   -9.000318|  2.6460e-05|    0.039127|
|        4710|  4.0858e+01|  4.0858e+01|   -9.001908|  2.6348e-05|    0.039102|
|        4720|  4.0858e+01|  4.0858e+01|   -9.003486|  2.6236e-05|    0.039077|
|        4730|  4.0858e+01|  4.0858e+01|   -9.005054|  2.6126e-05|    0.039052|
|        4740|  4.0858e+01|  4.0858e+01|   -9.006616|  2.6016e-05|    0.039028|
|        4750|  4.0858e+01|  4.0858e+01|   -9.008183|  2.5907e-05|    0.039003|
|        4760|  4.0858e+01|  4.0858e+01|   -9.009736|  2.5799e-05|    0.038978|
|        4770|  4.0858e+01|  4.0858e+01|   -9.011286|  2.5691e-05|    0.038954|
|        4780|  4.0858e+01|  4.0858e+01|   -9.012828|  2.5584e-05|    0.038930|
|        4790|  4.0858e+01|  4.0858e+01|   -9.014348|  2.5477e-05|    0.038905|
|        4800|  4.0858e+01|  4.0858e+01|   -9.015854|  2.5371e-05|    0.038881|
+-----------------------------------------------------------------------+
|        File Writing Summary       |              Filename             |
+-----------------------------------------------------------------------+
|SU2 binary restart                 |restart_flow_aoa145.dat            |
|Paraview                           |flow_aoa145.vtu                    |
|Paraview surface                   |surface_flow_aoa145.vtu            |
+-----------------------------------------------------------------------+
+-----------------------------------------------------------------------------+
|  Inner_Iter|     Min CFL|     Max CFL|      rms[P]|  Cauchy[CD]|          CD|
+-----------------------------------------------------------------------------+
|        4810|  4.0858e+01|  4.0858e+01|   -9.017365|  2.5265e-05|    0.038857|
|        4820|  4.0858e+01|  4.0858e+01|   -9.018875|  2.5159e-05|    0.038833|
|        4830|  4.0858e+01|  4.0858e+01|   -9.020361|  2.5053e-05|    0.038810|
|        4840|  4.0858e+01|  4.0858e+01|   -9.021845|  2.4947e-05|    0.038786|
|        4850|  4.0858e+01|  4.0858e+01|   -9.023333|  2.4841e-05|    0.038762|
|        4860|  4.0858e+01|  4.0858e+01|   -9.024808|  2.4736e-05|    0.038739|
|        4870|  4.0858e+01|  4.0858e+01|   -9.026289|  2.4630e-05|    0.038716|
|        4880|  4.0858e+01|  4.0858e+01|   -9.027791|  2.4525e-05|    0.038692|
|        4890|  4.0858e+01|  4.0858e+01|   -9.029294|  2.4420e-05|    0.038669|
|        4900|  4.0858e+01|  4.0858e+01|   -9.030796|  2.4316e-05|    0.038646|
|        4910|  4.0858e+01|  4.0858e+01|   -9.032296|  2.4212e-05|    0.038623|
|        4920|  4.0858e+01|  4.0858e+01|   -9.033807|  2.4109e-05|    0.038600|
|        4930|  4.0858e+01|  4.0858e+01|   -9.035309|  2.4007e-05|    0.038577|
|        4940|  4.0858e+01|  4.0858e+01|   -9.036805|  2.3905e-05|    0.038555|
|        4950|  4.0858e+01|  4.0858e+01|   -9.038302|  2.3804e-05|    0.038532|
|        4960|  4.0858e+01|  4.0858e+01|   -9.039796|  2.3703e-05|    0.038509|
|        4970|  4.0858e+01|  4.0858e+01|   -9.041279|  2.3603e-05|    0.038487|
|        4980|  4.0858e+01|  4.0858e+01|   -9.042773|  2.3503e-05|    0.038465|
|        4990|  4.0858e+01|  4.0858e+01|   -9.044262|  2.3402e-05|    0.038443|
|        5000|  4.0858e+01|  4.0858e+01|   -9.045748|  2.3302e-05|    0.038420|
+-----------------------------------------------------------------------+
|        File Writing Summary       |              Filename             |
+-----------------------------------------------------------------------+
|SU2 binary restart                 |restart_flow_aoa145.dat            |
|Paraview                           |flow_aoa145.vtu                    |
|Paraview surface                   |surface_flow_aoa145.vtu            |
+-----------------------------------------------------------------------+
+-----------------------------------------------------------------------------+
|  Inner_Iter|     Min CFL|     Max CFL|      rms[P]|  Cauchy[CD]|          CD|
+-----------------------------------------------------------------------------+
|        5010|  4.0858e+01|  4.0858e+01|   -9.047243|  2.3202e-05|    0.038398|
|        5020|  4.0858e+01|  4.0858e+01|   -9.048748|  2.3103e-05|    0.038376|
|        5030|  4.0858e+01|  4.0858e+01|   -9.050256|  2.3003e-05|    0.038355|
|        5040|  4.0858e+01|  4.0858e+01|   -9.051758|  2.2903e-05|    0.038333|
|        5050|  4.0858e+01|  4.0858e+01|   -9.053257|  2.2804e-05|    0.038311|
|        5060|  4.0858e+01|  4.0858e+01|   -9.054777|  2.2705e-05|    0.038290|
|        5070|  4.0858e+01|  4.0858e+01|   -9.056309|  2.2607e-05|    0.038268|
|        5080|  4.0858e+01|  4.0858e+01|   -9.057842|  2.2509e-05|    0.038247|
|        5090|  4.0858e+01|  4.0858e+01|   -9.059376|  2.2412e-05|    0.038226|
|        5100|  4.0858e+01|  4.0858e+01|   -9.060907|  2.2315e-05|    0.038204|
|        5110|  4.0858e+01|  4.0858e+01|   -9.062437|  2.2220e-05|    0.038183|
|        5120|  4.0858e+01|  4.0858e+01|   -9.063976|  2.2125e-05|    0.038162|
|        5130|  4.0858e+01|  4.0858e+01|   -9.065521|  2.2030e-05|    0.038141|
|        5140|  4.0858e+01|  4.0858e+01|   -9.067059|  2.1937e-05|    0.038121|
|        5150|  4.0858e+01|  4.0858e+01|   -9.068600|  2.1843e-05|    0.038100|
|        5160|  4.0858e+01|  4.0858e+01|   -9.070150|  2.1750e-05|    0.038079|
|        5170|  4.0858e+01|  4.0858e+01|   -9.071704|  2.1657e-05|    0.038059|
|        5180|  4.0858e+01|  4.0858e+01|   -9.073242|  2.1564e-05|    0.038038|
|        5190|  4.0858e+01|  4.0858e+01|   -9.074797|  2.1472e-05|    0.038018|
|        5200|  4.0858e+01|  4.0858e+01|   -9.076351|  2.1379e-05|    0.037998|
+-----------------------------------------------------------------------+
|        File Writing Summary       |              Filename             |
+-----------------------------------------------------------------------+
|SU2 binary restart                 |restart_flow_aoa145.dat            |
|Paraview                           |flow_aoa145.vtu                    |
|Paraview surface                   |surface_flow_aoa145.vtu            |
+-----------------------------------------------------------------------+
+-----------------------------------------------------------------------------+
|  Inner_Iter|     Min CFL|     Max CFL|      rms[P]|  Cauchy[CD]|          CD|
+-----------------------------------------------------------------------------+
|        5210|  4.0858e+01|  4.0858e+01|   -9.077914|  2.1287e-05|    0.037977|
|        5220|  4.0858e+01|  4.0858e+01|   -9.079490|  2.1194e-05|    0.037957|
|        5230|  4.0858e+01|  4.0858e+01|   -9.081062|  2.1102e-05|    0.037937|
|        5240|  4.0858e+01|  4.0858e+01|   -9.082642|  2.1009e-05|    0.037917|
|        5250|  4.0858e+01|  4.0858e+01|   -9.084235|  2.0917e-05|    0.037897|
|        5260|  4.0858e+01|  4.0858e+01|   -9.085839|  2.0826e-05|    0.037878|
|        5270|  4.0858e+01|  4.0858e+01|   -9.087451|  2.0735e-05|    0.037858|
|        5280|  4.0858e+01|  4.0858e+01|   -9.089054|  2.0645e-05|    0.037838|
|        5290|  4.0858e+01|  4.0858e+01|   -9.090654|  2.0556e-05|    0.037819|
|        5300|  4.0858e+01|  4.0858e+01|   -9.092239|  2.0468e-05|    0.037800|
|        5310|  4.0858e+01|  4.0858e+01|   -9.093813|  2.0380e-05|    0.037780|
|        5320|  4.0858e+01|  4.0858e+01|   -9.095376|  2.0293e-05|    0.037761|
|        5330|  4.0858e+01|  4.0858e+01|   -9.096945|  2.0206e-05|    0.037742|
|        5340|  4.0858e+01|  4.0858e+01|   -9.098516|  2.0119e-05|    0.037723|
|        5350|  4.0858e+01|  4.0858e+01|   -9.100091|  2.0033e-05|    0.037704|
|        5360|  4.0858e+01|  4.0858e+01|   -9.101673|  1.9946e-05|    0.037685|
|        5370|  4.0858e+01|  4.0858e+01|   -9.103250|  1.9860e-05|    0.037666|
|        5380|  4.0858e+01|  4.0858e+01|   -9.104838|  1.9773e-05|    0.037647|
|        5390|  4.0858e+01|  4.0858e+01|   -9.106427|  1.9687e-05|    0.037628|
|        5400|  4.0858e+01|  4.0858e+01|   -9.108022|  1.9600e-05|    0.037610|
+-----------------------------------------------------------------------+
|        File Writing Summary       |              Filename             |
+-----------------------------------------------------------------------+
|SU2 binary restart                 |restart_flow_aoa145.dat            |
|Paraview                           |flow_aoa145.vtu                    |
|Paraview surface                   |surface_flow_aoa145.vtu            |
+-----------------------------------------------------------------------+
+-----------------------------------------------------------------------------+
|  Inner_Iter|     Min CFL|     Max CFL|      rms[P]|  Cauchy[CD]|          CD|
+-----------------------------------------------------------------------------+
|        5410|  4.0858e+01|  4.0858e+01|   -9.109622|  1.9514e-05|    0.037591|
|        5420|  4.0858e+01|  4.0858e+01|   -9.111219|  1.9429e-05|    0.037573|
|        5430|  4.0858e+01|  4.0858e+01|   -9.112807|  1.9343e-05|    0.037555|
|        5440|  4.0858e+01|  4.0858e+01|   -9.114390|  1.9258e-05|    0.037536|
|        5450|  4.0858e+01|  4.0858e+01|   -9.115971|  1.9174e-05|    0.037518|
|        5460|  4.0858e+01|  4.0858e+01|   -9.117543|  1.9091e-05|    0.037500|
|        5470|  4.0858e+01|  4.0858e+01|   -9.119118|  1.9008e-05|    0.037482|
|        5480|  4.0858e+01|  4.0858e+01|   -9.120700|  1.8926e-05|    0.037464|
|        5490|  4.0858e+01|  4.0858e+01|   -9.122277|  1.8844e-05|    0.037446|
|        5500|  4.0858e+01|  4.0858e+01|   -9.123851|  1.8763e-05|    0.037428|
|        5510|  4.0858e+01|  4.0858e+01|   -9.125432|  1.8683e-05|    0.037411|
|        5520|  4.0858e+01|  4.0858e+01|   -9.127002|  1.8602e-05|    0.037393|
|        5530|  4.0858e+01|  4.0858e+01|   -9.128579|  1.8521e-05|    0.037375|
|        5540|  4.0858e+01|  4.0858e+01|   -9.130156|  1.8441e-05|    0.037358|
|        5550|  4.0858e+01|  4.0858e+01|   -9.131747|  1.8361e-05|    0.037341|
|        5560|  4.0858e+01|  4.0858e+01|   -9.133351|  1.8280e-05|    0.037323|
|        5570|  4.0858e+01|  4.0858e+01|   -9.134953|  1.8200e-05|    0.037306|
|        5580|  4.0858e+01|  4.0858e+01|   -9.136559|  1.8120e-05|    0.037289|
|        5590|  4.0858e+01|  4.0858e+01|   -9.138159|  1.8040e-05|    0.037272|
|        5600|  4.0858e+01|  4.0858e+01|   -9.139757|  1.7961e-05|    0.037255|
+-----------------------------------------------------------------------+
|        File Writing Summary       |              Filename             |
+-----------------------------------------------------------------------+
|SU2 binary restart                 |restart_flow_aoa145.dat            |
|Paraview                           |flow_aoa145.vtu                    |
|Paraview surface                   |surface_flow_aoa145.vtu            |
+-----------------------------------------------------------------------+
+-----------------------------------------------------------------------------+
|  Inner_Iter|     Min CFL|     Max CFL|      rms[P]|  Cauchy[CD]|          CD|
+-----------------------------------------------------------------------------+
|        5610|  4.0858e+01|  4.0858e+01|   -9.141350|  1.7882e-05|    0.037238|
|        5620|  4.0858e+01|  4.0858e+01|   -9.142948|  1.7804e-05|    0.037221|
|        5630|  4.0858e+01|  4.0858e+01|   -9.144546|  1.7726e-05|    0.037204|
|        5640|  4.0858e+01|  4.0858e+01|   -9.146155|  1.7648e-05|    0.037187|
|        5650|  4.0858e+01|  4.0858e+01|   -9.147769|  1.7570e-05|    0.037171|
|        5660|  4.0858e+01|  4.0858e+01|   -9.149397|  1.7493e-05|    0.037154|
|        5670|  4.0858e+01|  4.0858e+01|   -9.151013|  1.7416e-05|    0.037138|
|        5680|  4.0858e+01|  4.0858e+01|   -9.152649|  1.7340e-05|    0.037121|
|        5690|  4.0858e+01|  4.0858e+01|   -9.154261|  1.7264e-05|    0.037105|
|        5700|  4.0858e+01|  4.0858e+01|   -9.155888|  1.7188e-05|    0.037088|
|        5710|  4.0858e+01|  4.0858e+01|   -9.157519|  1.7112e-05|    0.037072|
|        5720|  4.0858e+01|  4.0858e+01|   -9.159154|  1.7037e-05|    0.037056|
|        5730|  4.0858e+01|  4.0858e+01|   -9.160790|  1.6962e-05|    0.037040|
[...]
+-----------------------------------------------------------------------------+
|        8410|  4.0858e+01|  4.0858e+01|   -9.649403|  4.9853e-06|    0.034549|
|        8420|  4.0858e+01|  4.0858e+01|   -9.651366|  4.9614e-06|    0.034545|
|        8430|  4.0858e+01|  4.0858e+01|   -9.653336|  4.9375e-06|    0.034540|
|        8440|  4.0858e+01|  4.0858e+01|   -9.655310|  4.9137e-06|    0.034535|
|        8450|  4.0858e+01|  4.0858e+01|   -9.657290|  4.8901e-06|    0.034531|
|        8460|  4.0858e+01|  4.0858e+01|   -9.659272|  4.8664e-06|    0.034526|
|        8470|  4.0858e+01|  4.0858e+01|   -9.661260|  4.8429e-06|    0.034521|
|        8480|  4.0858e+01|  4.0858e+01|   -9.663244|  4.8194e-06|    0.034517|
|        8490|  4.0858e+01|  4.0858e+01|   -9.665233|  4.7959e-06|    0.034512|
|        8500|  4.0858e+01|  4.0858e+01|   -9.667223|  4.7725e-06|    0.034508|
|        8510|  4.0858e+01|  4.0858e+01|   -9.669214|  4.7493e-06|    0.034503|
|        8520|  4.0858e+01|  4.0858e+01|   -9.671202|  4.7261e-06|    0.034499|
|        8530|  4.0858e+01|  4.0858e+01|   -9.673198|  4.7031e-06|    0.034495|
|        8540|  4.0858e+01|  4.0858e+01|   -9.675194|  4.6802e-06|    0.034490|
|        8550|  4.0858e+01|  4.0858e+01|   -9.677202|  4.6575e-06|    0.034486|
|        8560|  4.0858e+01|  4.0858e+01|   -9.679220|  4.6348e-06|    0.034481|
|        8570|  4.0858e+01|  4.0858e+01|   -9.681233|  4.6123e-06|    0.034477|
|        8580|  4.0858e+01|  4.0858e+01|   -9.683246|  4.5898e-06|    0.034473|
|        8590|  4.0858e+01|  4.0858e+01|   -9.685258|  4.5675e-06|    0.034468|
|        8600|  4.0858e+01|  4.0858e+01|   -9.687268|  4.5453e-06|    0.034464|
+-----------------------------------------------------------------------+
|        File Writing Summary       |              Filename             |
+-----------------------------------------------------------------------+
|SU2 binary restart                 |restart_flow_aoa145.dat            |
|Paraview                           |flow_aoa145.vtu                    |
|Paraview surface                   |surface_flow_aoa145.vtu            |
+-----------------------------------------------------------------------+
+-----------------------------------------------------------------------------+
|  Inner_Iter|     Min CFL|     Max CFL|      rms[P]|  Cauchy[CD]|          CD|
+-----------------------------------------------------------------------------+
|        8610|  4.0858e+01|  4.0858e+01|   -9.689281|  4.5232e-06|    0.034460|
|        8620|  4.0858e+01|  4.0858e+01|   -9.691298|  4.5013e-06|    0.034456|
|        8630|  4.0858e+01|  4.0858e+01|   -9.693316|  4.4795e-06|    0.034451|
|        8640|  4.0858e+01|  4.0858e+01|   -9.695335|  4.4579e-06|    0.034447|
|        8650|  4.0858e+01|  4.0858e+01|   -9.697352|  4.4364e-06|    0.034443|
|        8660|  4.0858e+01|  4.0858e+01|   -9.699370|  4.4150e-06|    0.034439|
|        8670|  4.0858e+01|  4.0858e+01|   -9.701391|  4.3937e-06|    0.034435|
|        8680|  4.0858e+01|  4.0858e+01|   -9.703413|  4.3725e-06|    0.034431|
|        8690|  4.0858e+01|  4.0858e+01|   -9.705439|  4.3515e-06|    0.034426|
|        8700|  4.0858e+01|  4.0858e+01|   -9.707468|  4.3307e-06|    0.034422|
|        8710|  4.0858e+01|  4.0858e+01|   -9.709496|  4.3100e-06|    0.034418|
|        8720|  4.0858e+01|  4.0858e+01|   -9.711519|  4.2894e-06|    0.034414|
|        8730|  4.0858e+01|  4.0858e+01|   -9.713538|  4.2689e-06|    0.034410|
|        8740|  4.0858e+01|  4.0858e+01|   -9.715551|  4.2486e-06|    0.034406|
|        8750|  4.0858e+01|  4.0858e+01|   -9.717560|  4.2285e-06|    0.034402|
|        8760|  4.0858e+01|  4.0858e+01|   -9.719568|  4.2084e-06|    0.034398|
|        8770|  4.0858e+01|  4.0858e+01|   -9.721577|  4.1885e-06|    0.034394|
|        8780|  4.0858e+01|  4.0858e+01|   -9.723586|  4.1687e-06|    0.034390|
|        8790|  4.0858e+01|  4.0858e+01|   -9.725592|  4.1490e-06|    0.034386|
|        8800|  4.0858e+01|  4.0858e+01|   -9.727593|  4.1294e-06|    0.034382|
+-----------------------------------------------------------------------+
|        File Writing Summary       |              Filename             |
+-----------------------------------------------------------------------+
|SU2 binary restart                 |restart_flow_aoa145.dat            |
|Paraview                           |flow_aoa145.vtu                    |
|Paraview surface                   |surface_flow_aoa145.vtu            |
+-----------------------------------------------------------------------+
+-----------------------------------------------------------------------------+
|  Inner_Iter|     Min CFL|     Max CFL|      rms[P]|  Cauchy[CD]|          CD|
+-----------------------------------------------------------------------------+
|        8810|  4.0858e+01|  4.0858e+01|   -9.729588|  4.1099e-06|    0.034379|
|        8820|  4.0858e+01|  4.0858e+01|   -9.731584|  4.0906e-06|    0.034375|
|        8830|  4.0858e+01|  4.0858e+01|   -9.733578|  4.0714e-06|    0.034371|
|        8840|  4.0858e+01|  4.0858e+01|   -9.735574|  4.0523e-06|    0.034367|
|        8850|  4.0858e+01|  4.0858e+01|   -9.737558|  4.0334e-06|    0.034363|
|        8860|  4.0858e+01|  4.0858e+01|   -9.739548|  4.0145e-06|    0.034359|
|        8870|  4.0858e+01|  4.0858e+01|   -9.741532|  3.9958e-06|    0.034356|
|        8880|  4.0858e+01|  4.0858e+01|   -9.743516|  3.9771e-06|    0.034352|
|        8890|  4.0858e+01|  4.0858e+01|   -9.745501|  3.9585e-06|    0.034348|
|        8900|  4.0858e+01|  4.0858e+01|   -9.747482|  3.9400e-06|    0.034344|
|        8910|  4.0858e+01|  4.0858e+01|   -9.749462|  3.9216e-06|    0.034341|
|        8920|  4.0858e+01|  4.0858e+01|   -9.751434|  3.9034e-06|    0.034337|
|        8930|  4.0858e+01|  4.0858e+01|   -9.753401|  3.8852e-06|    0.034333|
|        8940|  4.0858e+01|  4.0858e+01|   -9.755368|  3.8672e-06|    0.034330|
|        8950|  4.0858e+01|  4.0858e+01|   -9.757338|  3.8493e-06|    0.034326|
|        8960|  4.0858e+01|  4.0858e+01|   -9.759314|  3.8314e-06|    0.034322|
|        8970|  4.0858e+01|  4.0858e+01|   -9.761300|  3.8137e-06|    0.034319|
|        8980|  4.0858e+01|  4.0858e+01|   -9.763287|  3.7961e-06|    0.034315|
|        8990|  4.0858e+01|  4.0858e+01|   -9.765271|  3.7786e-06|    0.034312|
|        9000|  4.0858e+01|  4.0858e+01|   -9.767251|  3.7612e-06|    0.034308|
+-----------------------------------------------------------------------+
|        File Writing Summary       |              Filename             |
+-----------------------------------------------------------------------+
|SU2 binary restart                 |restart_flow_aoa145.dat            |
|Paraview                           |flow_aoa145.vtu                    |
|Paraview surface                   |surface_flow_aoa145.vtu            |
+-----------------------------------------------------------------------+
+-----------------------------------------------------------------------------+
|  Inner_Iter|     Min CFL|     Max CFL|      rms[P]|  Cauchy[CD]|          CD|
+-----------------------------------------------------------------------------+
|        9010|  4.0858e+01|  4.0858e+01|   -9.769229|  3.7439e-06|    0.034305|
|        9020|  4.0858e+01|  4.0858e+01|   -9.771205|  3.7267e-06|    0.034301|
|        9030|  4.0858e+01|  4.0858e+01|   -9.773186|  3.7095e-06|    0.034298|
|        9040|  4.0858e+01|  4.0858e+01|   -9.775171|  3.6924e-06|    0.034294|
|        9050|  4.0858e+01|  4.0858e+01|   -9.777161|  3.6754e-06|    0.034291|
|        9060|  4.0858e+01|  4.0858e+01|   -9.779158|  3.6585e-06|    0.034287|
|        9070|  4.0858e+01|  4.0858e+01|   -9.781154|  3.6417e-06|    0.034284|
|        9080|  4.0858e+01|  4.0858e+01|   -9.783153|  3.6249e-06|    0.034280|
|        9090|  4.0858e+01|  4.0858e+01|   -9.785160|  3.6082e-06|    0.034277|
|        9100|  4.0858e+01|  4.0858e+01|   -9.787164|  3.5915e-06|    0.034273|
|        9110|  4.0858e+01|  4.0858e+01|   -9.789177|  3.5750e-06|    0.034270|
|        9120|  4.0858e+01|  4.0858e+01|   -9.791192|  3.5584e-06|    0.034267|
|        9130|  4.0858e+01|  4.0858e+01|   -9.793209|  3.5420e-06|    0.034263|
|        9140|  4.0858e+01|  4.0858e+01|   -9.795223|  3.5256e-06|    0.034260|
|        9150|  4.0858e+01|  4.0858e+01|   -9.797249|  3.5092e-06|    0.034257|
|        9160|  4.0858e+01|  4.0858e+01|   -9.799278|  3.4929e-06|    0.034253|
|        9170|  4.0858e+01|  4.0858e+01|   -9.801320|  3.4765e-06|    0.034250|
|        9180|  4.0858e+01|  4.0858e+01|   -9.803368|  3.4602e-06|    0.034247|
|        9190|  4.0858e+01|  4.0858e+01|   -9.805424|  3.4440e-06|    0.034244|
|        9200|  4.0858e+01|  4.0858e+01|   -9.807488|  3.4277e-06|    0.034240|
+-----------------------------------------------------------------------+
|        File Writing Summary       |              Filename             |
+-----------------------------------------------------------------------+
|SU2 binary restart                 |restart_flow_aoa145.dat            |
|Paraview                           |flow_aoa145.vtu                    |
|Paraview surface                   |surface_flow_aoa145.vtu            |
+-----------------------------------------------------------------------+
+-----------------------------------------------------------------------------+
|  Inner_Iter|     Min CFL|     Max CFL|      rms[P]|  Cauchy[CD]|          CD|
+-----------------------------------------------------------------------------+
|        9210|  4.0858e+01|  4.0858e+01|   -9.809554|  3.4115e-06|    0.034237|
|        9220|  4.0858e+01|  4.0858e+01|   -9.811619|  3.3953e-06|    0.034234|
|        9230|  4.0858e+01|  4.0858e+01|   -9.813690|  3.3792e-06|    0.034231|
|        9240|  4.0858e+01|  4.0858e+01|   -9.815757|  3.3631e-06|    0.034228|
|        9250|  4.0858e+01|  4.0858e+01|   -9.817831|  3.3471e-06|    0.034224|
|        9260|  4.0858e+01|  4.0858e+01|   -9.819910|  3.3312e-06|    0.034221|
|        9270|  4.0858e+01|  4.0858e+01|   -9.821996|  3.3153e-06|    0.034218|
|        9280|  4.0858e+01|  4.0858e+01|   -9.824088|  3.2996e-06|    0.034215|
|        9290|  4.0858e+01|  4.0858e+01|   -9.826181|  3.2839e-06|    0.034212|
|        9300|  4.0858e+01|  4.0858e+01|   -9.828275|  3.2682e-06|    0.034209|
|        9310|  4.0858e+01|  4.0858e+01|   -9.830369|  3.2527e-06|    0.034206|
|        9320|  4.0858e+01|  4.0858e+01|   -9.832462|  3.2371e-06|    0.034203|
|        9330|  4.0858e+01|  4.0858e+01|   -9.834551|  3.2216e-06|    0.034200|
|        9340|  4.0858e+01|  4.0858e+01|   -9.836644|  3.2062e-06|    0.034197|
|        9350|  4.0858e+01|  4.0858e+01|   -9.838737|  3.1908e-06|    0.034194|
|        9360|  4.0858e+01|  4.0858e+01|   -9.840831|  3.1755e-06|    0.034191|
|        9370|  4.0858e+01|  4.0858e+01|   -9.842928|  3.1601e-06|    0.034188|
|        9380|  4.0858e+01|  4.0858e+01|   -9.845025|  3.1448e-06|    0.034185|
|        9390|  4.0858e+01|  4.0858e+01|   -9.847120|  3.1296e-06|    0.034182|
|        9400|  4.0858e+01|  4.0858e+01|   -9.849216|  3.1144e-06|    0.034179|
+-----------------------------------------------------------------------+
|        File Writing Summary       |              Filename             |
+-----------------------------------------------------------------------+
|SU2 binary restart                 |restart_flow_aoa145.dat            |
|Paraview                           |flow_aoa145.vtu                    |
|Paraview surface                   |surface_flow_aoa145.vtu            |
+-----------------------------------------------------------------------+
+-----------------------------------------------------------------------------+
|  Inner_Iter|     Min CFL|     Max CFL|      rms[P]|  Cauchy[CD]|          CD|
+-----------------------------------------------------------------------------+
|        9410|  4.0858e+01|  4.0858e+01|   -9.851313|  3.0992e-06|    0.034176|
|        9420|  4.0858e+01|  4.0858e+01|   -9.853414|  3.0841e-06|    0.034173|
|        9430|  4.0858e+01|  4.0858e+01|   -9.855517|  3.0691e-06|    0.034170|
|        9440|  4.0858e+01|  4.0858e+01|   -9.857622|  3.0542e-06|    0.034167|
|        9450|  4.0858e+01|  4.0858e+01|   -9.859723|  3.0393e-06|    0.034164|
|        9460|  4.0858e+01|  4.0858e+01|   -9.861823|  3.0245e-06|    0.034162|
|        9470|  4.0858e+01|  4.0858e+01|   -9.863914|  3.0097e-06|    0.034159|
|        9480|  4.0858e+01|  4.0858e+01|   -9.865999|  2.9950e-06|    0.034156|
|        9490|  4.0858e+01|  4.0858e+01|   -9.868079|  2.9804e-06|    0.034153|
|        9500|  4.0858e+01|  4.0858e+01|   -9.870153|  2.9658e-06|    0.034150|
|        9510|  4.0858e+01|  4.0858e+01|   -9.872224|  2.9512e-06|    0.034148|
|        9520|  4.0858e+01|  4.0858e+01|   -9.874294|  2.9368e-06|    0.034145|
|        9530|  4.0858e+01|  4.0858e+01|   -9.876367|  2.9223e-06|    0.034142|
|        9540|  4.0858e+01|  4.0858e+01|   -9.878439|  2.9079e-06|    0.034139|
|        9550|  4.0858e+01|  4.0858e+01|   -9.880513|  2.8936e-06|    0.034137|
|        9560|  4.0858e+01|  4.0858e+01|   -9.882585|  2.8793e-06|    0.034134|
|        9570|  4.0858e+01|  4.0858e+01|   -9.884656|  2.8651e-06|    0.034131|
|        9580|  4.0858e+01|  4.0858e+01|   -9.886722|  2.8509e-06|    0.034128|
|        9590|  4.0858e+01|  4.0858e+01|   -9.888781|  2.8368e-06|    0.034126|
|        9600|  4.0858e+01|  4.0858e+01|   -9.890832|  2.8227e-06|    0.034123|
+-----------------------------------------------------------------------+
|        File Writing Summary       |              Filename             |
+-----------------------------------------------------------------------+
|SU2 binary restart                 |restart_flow_aoa145.dat            |
|Paraview                           |flow_aoa145.vtu                    |
|Paraview surface                   |surface_flow_aoa145.vtu            |
+-----------------------------------------------------------------------+
+-----------------------------------------------------------------------------+
|  Inner_Iter|     Min CFL|     Max CFL|      rms[P]|  Cauchy[CD]|          CD|
+-----------------------------------------------------------------------------+
|        9610|  4.0858e+01|  4.0858e+01|   -9.892872|  2.8088e-06|    0.034120|
|        9620|  4.0858e+01|  4.0858e+01|   -9.894910|  2.7949e-06|    0.034118|
|        9630|  4.0858e+01|  4.0858e+01|   -9.896947|  2.7811e-06|    0.034115|
|        9640|  4.0858e+01|  4.0858e+01|   -9.898988|  2.7674e-06|    0.034113|
|        9650|  4.0858e+01|  4.0858e+01|   -9.901027|  2.7537e-06|    0.034110|
|        9660|  4.0858e+01|  4.0858e+01|   -9.903067|  2.7401e-06|    0.034107|
|        9670|  4.0858e+01|  4.0858e+01|   -9.905106|  2.7266e-06|    0.034105|
|        9680|  4.0858e+01|  4.0858e+01|   -9.907144|  2.7131e-06|    0.034102|
|        9690|  4.0858e+01|  4.0858e+01|   -9.909178|  2.6997e-06|    0.034100|
|        9700|  4.0858e+01|  4.0858e+01|   -9.911209|  2.6864e-06|    0.034097|
|        9710|  4.0858e+01|  4.0858e+01|   -9.913238|  2.6732e-06|    0.034095|
|        9720|  4.0858e+01|  4.0858e+01|   -9.915266|  2.6601e-06|    0.034092|
|        9730|  4.0858e+01|  4.0858e+01|   -9.917292|  2.6471e-06|    0.034090|
|        9740|  4.0858e+01|  4.0858e+01|   -9.919316|  2.6341e-06|    0.034087|
|        9750|  4.0858e+01|  4.0858e+01|   -9.921344|  2.6212e-06|    0.034085|
|        9760|  4.0858e+01|  4.0858e+01|   -9.923374|  2.6084e-06|    0.034082|
|        9770|  4.0858e+01|  4.0858e+01|   -9.925400|  2.5956e-06|    0.034080|
|        9780|  4.0858e+01|  4.0858e+01|   -9.927426|  2.5829e-06|    0.034077|
|        9790|  4.0858e+01|  4.0858e+01|   -9.929452|  2.5703e-06|    0.034075|
|        9800|  4.0858e+01|  4.0858e+01|   -9.931478|  2.5578e-06|    0.034073|
+-----------------------------------------------------------------------+
|        File Writing Summary       |              Filename             |
+-----------------------------------------------------------------------+
|SU2 binary restart                 |restart_flow_aoa145.dat            |
|Paraview                           |flow_aoa145.vtu                    |
|Paraview surface                   |surface_flow_aoa145.vtu            |
+-----------------------------------------------------------------------+
+-----------------------------------------------------------------------------+
|  Inner_Iter|     Min CFL|     Max CFL|      rms[P]|  Cauchy[CD]|          CD|
+-----------------------------------------------------------------------------+
|        9810|  4.0858e+01|  4.0858e+01|   -9.933504|  2.5453e-06|    0.034070|
|        9820|  4.0858e+01|  4.0858e+01|   -9.935531|  2.5329e-06|    0.034068|
|        9830|  4.0858e+01|  4.0858e+01|   -9.937567|  2.5206e-06|    0.034065|
|        9840|  4.0858e+01|  4.0858e+01|   -9.939600|  2.5083e-06|    0.034063|
|        9850|  4.0858e+01|  4.0858e+01|   -9.941641|  2.4960e-06|    0.034061|
|        9860|  4.0858e+01|  4.0858e+01|   -9.943680|  2.4839e-06|    0.034058|
|        9870|  4.0858e+01|  4.0858e+01|   -9.945718|  2.4717e-06|    0.034056|
|        9880|  4.0858e+01|  4.0858e+01|   -9.947754|  2.4597e-06|    0.034054|
|        9890|  4.0858e+01|  4.0858e+01|   -9.949790|  2.4477e-06|    0.034051|
|        9900|  4.0858e+01|  4.0858e+01|   -9.951827|  2.4357e-06|    0.034049|
|        9910|  4.0858e+01|  4.0858e+01|   -9.953869|  2.4239e-06|    0.034047|
|        9920|  4.0858e+01|  4.0858e+01|   -9.955913|  2.4121e-06|    0.034045|
|        9930|  4.0858e+01|  4.0858e+01|   -9.957960|  2.4003e-06|    0.034042|
|        9940|  4.0858e+01|  4.0858e+01|   -9.960005|  2.3887e-06|    0.034040|
|        9950|  4.0858e+01|  4.0858e+01|   -9.962053|  2.3771e-06|    0.034038|
|        9960|  4.0858e+01|  4.0858e+01|   -9.964099|  2.3656e-06|    0.034036|
|        9970|  4.0858e+01|  4.0858e+01|   -9.966144|  2.3542e-06|    0.034033|
|        9980|  4.0858e+01|  4.0858e+01|   -9.968191|  2.3428e-06|    0.034031|
|        9990|  4.0858e+01|  4.0858e+01|   -9.970237|  2.3316e-06|    0.034029|
|        9998|  4.0858e+01|  4.0858e+01|   -9.971881|  2.3226e-06|    0.034027|

----------------------------- Solver Exit -------------------------------

Maximum number of iterations reached (ITER = 9999) before convergence.
+-----------------------------------------------------------------------+
|      Convergence Field     |     Value    |   Criterion  |  Converged |
+-----------------------------------------------------------------------+
|                      rms[P]|      -9.97188|          < -9|         Yes|
|                  Cauchy[CD]|   2.32259e-06|       < 1e-06|          No|
+-----------------------------------------------------------------------+
-------------------------------------------------------------------------
+-----------------------------------------------------------------------+
|        File Writing Summary       |              Filename             |
+-----------------------------------------------------------------------+
|SU2 binary restart                 |restart_flow_aoa145.dat            |
|Paraview                           |flow_aoa145.vtu                    |
|Paraview surface                   |surface_flow_aoa145.vtu            |
+-----------------------------------------------------------------------+

------------------------- Solver Postprocessing -------------------------
Deleted CNumerics container.
Deleted CIntegration container.
Deleted CSolver container.
Deleted CIteration container.
Deleted CInterface container.
Deleted CGeometry container.
Deleted CFreeFormDefBox class.
Deleted CSurfaceMovement class.
Deleted CVolumetricMovement class.
Deleted CConfig container.
Deleted nInst container.
Deleted COutput class.
-------------------------------------------------------------------------

------------------------- Exit Success (SU2_CFD) ------------------------

