
-------------------------------------------------------------------------
|    ___ _   _ ___                                                      |
|   / __| | | |_  )   Release 7.4.0 "Blackbird"                         |
|   \__ \ |_| |/ /                                                      |
|   |___/\___//___|   Suite (Computational Fluid Dynamics Code)         |
|                                                                       |
-------------------------------------------------------------------------
| SU2 Project Website: https://su2code.github.io                        |
|                                                                       |
| The SU2 Project is maintained by the SU2 Foundation                   |
| (http://su2foundation.org)                                            |
-------------------------------------------------------------------------
| Copyright 2012-2022, SU2 Contributors                                 |
|                                                                       |
| SU2 is free software; you can redistribute it and/or                  |
| modify it under the terms of the GNU Lesser General Public            |
| License as published by the Free Software Foundation; either          |
| version 2.1 of the License, or (at your option) any later version.    |
|                                                                       |
| SU2 is distributed in the hope that it will be useful,                |
| but WITHOUT ANY WARRANTY; without even the implied warranty of        |
| MERCHANTABILITY or FITNESS FOR A PARTICULAR PURPOSE. See the GNU      |
| Lesser General Public License for more details.                       |
|                                                                       |
| You should have received a copy of the GNU Lesser General Public      |
| License along with SU2. If not, see <http://www.gnu.org/licenses/>.   |
-------------------------------------------------------------------------

Parsing config file for zone 0

----------------- Physical Case Definition ( Zone 0 ) -------------------
Incompressible RANS equations.
Turbulence model: Spalart-Allmaras-noft2
Hybrid RANS/LES: No Hybrid RANS/LES
Reading and writing binary SU2 native restart files.
Read flow solution from: ../../../O1/caseG7/cfdG7/restart_flow_G7.dat.
Non-Dimensional simulation using intialization values.
The reference area is 1 m^2.
The semi-span will be computed using the max y(3D) value.
The reference length is 1.00898 m.
Reference origin for moment evaluation is (-0.756, 0, 0).
Surface(s) where the force coefficients are evaluated: AIRFOIL.

Surface(s) plotted in the output file: AIRFOIL.
Input mesh file name: ../meshG7/meshG7.su2

--------------- Space Numerical Integration ( Zone 0 ) ------------------
Flux difference splitting (FDS) upwind scheme for the flow inviscid terms.
Second order integration in space, with slope limiter.
Venkatakrishnan slope-limiting method, with constant: 0.047.
The reference element size is: 1. 
Average of gradients with correction (viscous flow terms).
Average of gradients with correction (viscous turbulence terms).
Gradient for upwind reconstruction: unweighted Least-Squares.
Gradient for viscous and source terms: Green-Gauss.

--------------- Time Numerical Integration  ( Zone 0 ) ------------------
Local time stepping (steady state simulation).
Euler implicit method for the flow equations.
FGMRES is used for solving the linear system.
Using a ILU(0) preconditioning.
Convergence criteria of the linear solver: 1e-06.
Max number of linear iterations: 10.
CFL adaptation. Factor down: 0.1, factor up: 1.2,
                lower limit: 1, upper limit: 1000,
                acceptable linear residual: 0.001.
Courant-Friedrichs-Lewy number:        2
Euler implicit time integration for the turbulence model.

------------------ Convergence Criteria  ( Zone 0 ) ---------------------
Maximum number of solver subiterations: 20000.
Begin convergence monitoring at iteration 10.
Residual minimum value: 1e-9.
Cauchy series min. value: 1e-06.
Number of Cauchy elements: 250.
Begin windowed time average at iteration 0.

-------------------- Output Information ( Zone 0 ) ----------------------
File writing frequency: 
+------------------------------------+
|                     File| Frequency|
+------------------------------------+
|                  RESTART|       200|
|                 PARAVIEW|       200|
|         SURFACE_PARAVIEW|       200|
+------------------------------------+
Writing the convergence history file every 1 inner iterations.
Writing the screen convergence history every 10 inner iterations.
The tabular file format is CSV (.csv).
Convergence history file name: history_G7.
Forces breakdown file name: forces_breakdown.dat.
Surface file name: surface_flow_G7.
Volume file name: flow_G7.
Restart file name: restart_flow_G7.dat.

------------- Config File Boundary Information ( Zone 0 ) ---------------
+-----------------------------------------------------------------------+
|                        Marker Type|                        Marker Name|
+-----------------------------------------------------------------------+
|                          Far-field|                           FARFIELD|
+-----------------------------------------------------------------------+
|                     Heat flux wall|                            AIRFOIL|
+-----------------------------------------------------------------------+

-------------------- Output Preprocessing ( Zone 0 ) --------------------

WARNING: SURFACE_PRESSURE_DROP can only be computed for at least 2 surfaces (outlet, inlet, ...)

Screen output fields: INNER_ITER, MIN_CFL, MAX_CFL, RMS_PRESSURE, CAUCHY_DRAG, DRAG
History output group(s): INNER_ITER, MIN_CFL, MAX_CFL, RMS_RES, LIFT, DRAG, MOMENT_Z, CAUCHY
Convergence field(s): RMS_PRESSURE, DRAG
Warning: No (valid) fields chosen for time convergence monitoring. Time convergence monitoring inactive.
Volume output fields: COORDINATES, SOLUTION, PRIMITIVE, RESIDUAL, MESH_QUALITY

------------------- Geometry Preprocessing ( Zone 0 ) -------------------
Two dimensional problem.
394110 grid points before partitioning.
392644 volume elements before partitioning.
2 surface markers.
898 boundary elements in index 0 (Marker = AIRFOIL).
2034 boundary elements in index 1 (Marker = FARFIELD).
Executing the partitioning functions.
Building the graph adjacency structure.
Calling ParMETIS... graph partitioning complete (4215 edge cuts).
Distributing ParMETIS coloring.
Rebalancing vertices.
Rebalancing volume element connectivity.
Rebalancing markers and surface elements.
402552 vertices including ghost points. 
396853 interior elements including halo cells. 
396853 quadrilaterals.
Establishing MPI communication patterns.
Setting point connectivity.
Renumbering points (Reverse Cuthill McKee Ordering).
Recomputing point connectivity.
Setting element connectivity.
Checking the numerical grid orientation.
All volume elements are correctly orientend.
There has been a re-orientation of 1476 LINE surface elements.
Identifying edges and vertices.
Setting the control volume structure.
Area of the computational grid: 3232.29.
Searching for the closest normal neighbors to the surfaces.
Storing a mapping from global to local point index.
Compute the surface curvature.
Max K: 7881.07. Mean K: 4.02808. Standard deviation K: 145.804.
Checking for periodicity.
Computing mesh quality statistics for the dual control volumes.
+--------------------------------------------------------------+
|           Mesh Quality Metric|        Minimum|        Maximum|
+--------------------------------------------------------------+
|    Orthogonality Angle (deg.)|        74.6076|             90|
|     CV Face Area Aspect Ratio|        1.00002|        53189.1|
|           CV Sub-Volume Ratio|              1|        13.7078|
+--------------------------------------------------------------+
Finding max control volume width.
Communicating number of neighbors.
Wetted area = 2.05979 m.
Area projection in the x-plane = 0.121117 m, y-plane = 1.00885 m.
Max. coordinate in the x-direction = 1.00898 m, y-direction = 0.0759837 m.
Min. coordinate in the x-direction = 3.82704e-07 m, y-direction = -0.0451341 m.
Computing wall distances.

-------------------- Solver Preprocessing ( Zone 0 ) --------------------
 Warning: There is no restart file (flow.meta).
 Computation will continue without updating metadata parameters.
Incompressible flow: rho_ref, vel_ref, and temp_ref
are based on the initial values, p_ref = rho_ref*vel_ref^2.
Force coefficients computed using initial values.
The reference area for force coeffs. is 1 m^2.
The reference length for force coeffs. is 1.00898 m.
The pressure is decomposed into thermodynamic and dynamic components.
The initial value of the dynamic pressure is 0.
Mach number: 0.0276747, computed using the Bulk modulus.
For external flows, the initial state is imposed at the far-field.
Angle of attack (deg): 14, computed using the initial velocity.
Side slip angle (deg): 0, computed using the initial velocity.
Reynolds number per meter: 594999, computed using initial values.
Reynolds number is a byproduct of inputs only (not used internally).
SI units only. The grid should be dimensional (meters).
No energy equation.

-- Models:
+------------------------------------------------------------------------------+
|          Viscosity Model|        Conductivity Model|              Fluid Model|
+------------------------------------------------------------------------------+
|       CONSTANT_VISCOSITY|          CONSTANT_PRANDTL|         CONSTANT_DENSITY|
+------------------------------------------------------------------------------+
-- Fluid properties:
+------------------------------------------------------------------------------+
|                  Name|    Dim. value|    Ref. value|      Unit|Non-dim. value|
+------------------------------------------------------------------------------+
|             Viscosity|      1.92e-05|        11.424|   N.s/m^2|   1.68067e-06|
+------------------------------------------------------------------------------+
|        Prandtl (Lam.)|             -|             -|         -|          0.72|
|       Prandtl (Turb.)|             -|             -|         -|           0.9|
+------------------------------------------------------------------------------+
|          Bulk Modulus|        142000|             1|        Pa|        142000|
+------------------------------------------------------------------------------+
-- Initial and free-stream conditions:
+------------------------------------------------------------------------------+
|                  Name|    Dim. value|    Ref. value|      Unit|Non-dim. value|
+------------------------------------------------------------------------------+
|      Dynamic Pressure|             0|       108.756|        Pa|             0|
|        Total Pressure|       54.3781|       108.756|        Pa|           0.5|
|               Density|           1.2|           1.2|    kg/m^3|             1|
|            Velocity-X|        9.2372|       9.51999|       m/s|      0.970296|
|            Velocity-Y|        2.3031|       9.51999|       m/s|      0.241923|
|    Velocity Magnitude|       9.51999|       9.51999|       m/s|             1|
+------------------------------------------------------------------------------+
|             Viscosity|      1.92e-05|        11.424|   N.s/m^2|   1.68067e-06|
|          Conductivity|             -|       3.59312|   W/m^2.K|             -|
|     Turb. Kin. Energy|       1.35945|       90.6301|   m^2/s^2|         0.015|
|     Spec. Dissipation|       8496.58|       9.51999|       1/s|       892.499|
+------------------------------------------------------------------------------+
|           Mach Number|             -|             -|         -|     0.0276747|
|       Reynolds Number|             -|             -|         -|        594999|
+------------------------------------------------------------------------------+
Initialize Jacobian structure (Navier-Stokes). MG level: 0.
Initialize Jacobian structure (SA model).

------------------- Numerics Preprocessing ( Zone 0 ) -------------------

----------------- Integration Preprocessing ( Zone 0 ) ------------------

------------------- Iteration Preprocessing ( Zone 0 ) ------------------
Euler/Navier-Stokes/RANS fluid iteration.

------------------------------ Begin Solver -----------------------------

Simulation Run using the Single-zone Driver
+-----------------------------------------------------------------------------+
|  Inner_Iter|     Min CFL|     Max CFL|      rms[P]|  Cauchy[CD]|          CD|
+-----------------------------------------------------------------------------+
|           0|  2.4000e+00|  2.4000e+00|   -6.507896|  1.0000e+00|    0.097911|
|          10|  1.4860e+01|  1.4860e+01|   -6.519011|  5.6979e-05|    0.096487|
|          20|  6.3896e+01|  6.3896e+01|   -6.890173|  8.1411e-04|    0.077559|
|          30|  3.2969e+01|  3.2969e+01|   -6.924538|  1.1634e-03|    0.068827|
|          40|  8.2037e+00|  8.2037e+00|   -6.946292|  1.3926e-03|    0.063096|
|          50|  5.0795e+01|  5.0795e+01|   -6.972665|  1.3987e-03|    0.062944|
|          60|  2.6209e+01|  2.6209e+01|   -6.992015|  1.4157e-03|    0.062518|
|          70|  1.3523e+01|  1.3523e+01|   -6.978151|  1.4605e-03|    0.061399|
|          80|  6.9778e+01|  6.9778e+01|   -7.029318|  1.5534e-03|    0.059076|
|          90|  1.4469e+01|  1.4469e+01|   -7.105147|  1.6713e-03|    0.056129|
|         100|  7.4657e+00|  7.4657e+00|   -7.142591|  1.7013e-03|    0.056712|
|         110|  4.6226e+01|  4.6226e+01|   -7.192844|  1.7398e-03|    0.057673|
|         120|  1.6564e+01|  1.6564e+01|   -7.228516|  1.8373e-03|    0.060110|
|         130|  8.5465e+00|  8.5465e+00|   -7.191419|  1.9102e-03|    0.061932|
|         140|  5.2917e+01|  5.2917e+01|   -7.206596|  1.9400e-03|    0.062679|
|         150|  2.7304e+01|  2.7304e+01|   -7.212980|  1.9482e-03|    0.062562|
|         160|  1.4088e+01|  1.4088e+01|   -7.215995|  1.9887e-03|    0.061549|
|         170|  5.0481e+01|  5.0481e+01|   -7.241378|  2.0738e-03|    0.059421|
|         180|  5.0481e+01|  5.0481e+01|   -7.311089|  2.1679e-03|    0.057069|
|         190|  7.2693e+00|  7.2693e+00|   -7.262247|  2.1898e-03|    0.057257|
|         200|  4.5010e+01|  4.5010e+01|   -7.251507|  2.2085e-03|    0.057724|
+-----------------------------------------------------------------------+
|        File Writing Summary       |              Filename             |
+-----------------------------------------------------------------------+
|SU2 binary restart                 |restart_flow_G7.dat                |
|Paraview                           |flow_G7.vtu                        |
|Paraview surface                   |surface_flow_G7.vtu                |
+-----------------------------------------------------------------------+
+-----------------------------------------------------------------------------+
|  Inner_Iter|     Min CFL|     Max CFL|      rms[P]|  Cauchy[CD]|          CD|
+-----------------------------------------------------------------------------+
|         210|  5.4011e+01|  5.4011e+01|   -7.308596|  2.2373e-03|    0.058370|
|         220|  1.1200e+01|  1.1200e+01|   -7.393689|  2.2647e-03|    0.057685|
|         230|  5.7789e+00|  5.7789e+00|   -7.429326|  2.2966e-03|    0.056888|
|         240|  3.5781e+01|  3.5781e+01|   -7.440783|  2.3091e-03|    0.056577|
|         250|  1.2821e+01|  1.2821e+01|   -7.416051|  2.3172e-03|    0.056465|
|         260|  5.5128e+01|  5.5128e+01|   -7.383881|  2.2816e-03|    0.056999|
|         270|  5.5128e+01|  5.5128e+01|   -7.409767|  1.5630e-03|    0.057962|
|         280|  5.5128e+01|  5.5128e+01|   -7.499938|  1.2357e-03|    0.057465|
|         290|  5.5128e+01|  5.5128e+01|   -7.501863|  1.0478e-03|    0.056433|
|         300|  5.5128e+01|  5.5128e+01|   -7.470397|  1.0518e-03|    0.056297|
|         310|  5.5128e+01|  5.5128e+01|   -7.606782|  1.0420e-03|    0.056351|
|         320|  5.5128e+01|  5.5128e+01|   -7.683901|  1.0357e-03|    0.055390|
|         330|  5.5128e+01|  5.5128e+01|   -7.582282|  9.9528e-04|    0.054079|
|         340|  5.5128e+01|  5.5128e+01|   -7.664627|  9.0125e-04|    0.053483|
|         350|  1.9753e+01|  1.9753e+01|   -7.789438|  8.7324e-04|    0.053431|
|         360|  1.0192e+01|  1.0192e+01|   -7.782881|  8.3556e-04|    0.053450|
|         370|  6.3108e+01|  6.3108e+01|   -7.746392|  7.3889e-04|    0.053470|
|         380|  3.2562e+01|  3.2562e+01|   -7.701655|  6.6625e-04|    0.053465|
|         390|  5.6268e+01|  5.6268e+01|   -7.700295|  6.4311e-04|    0.053297|
|         400|  5.6268e+01|  5.6268e+01|   -7.869308|  6.5324e-04|    0.052840|
+-----------------------------------------------------------------------+
|        File Writing Summary       |              Filename             |
+-----------------------------------------------------------------------+
|SU2 binary restart                 |restart_flow_G7.dat                |
|Paraview                           |flow_G7.vtu                        |
|Paraview surface                   |surface_flow_G7.vtu                |
+-----------------------------------------------------------------------+
+-----------------------------------------------------------------------------+
|  Inner_Iter|     Min CFL|     Max CFL|      rms[P]|  Cauchy[CD]|          CD|
+-----------------------------------------------------------------------------+
|         410|  5.6268e+01|  5.6268e+01|   -7.838548|  6.3625e-04|    0.052251|
|         420|  5.6268e+01|  5.6268e+01|   -7.769755|  5.7932e-04|    0.051547|
|         430|  5.6268e+01|  5.6268e+01|   -7.900654|  5.1709e-04|    0.050751|
|         440|  5.6268e+01|  5.6268e+01|   -7.891151|  5.1766e-04|    0.050188|
|         450|  5.6268e+01|  5.6268e+01|   -7.832135|  5.0662e-04|    0.049997|
|         460|  5.6268e+01|  5.6268e+01|   -7.961857|  4.8176e-04|    0.049898|
|         470|  5.6268e+01|  5.6268e+01|   -7.958241|  4.6468e-04|    0.049640|
|         480|  5.6268e+01|  5.6268e+01|   -7.848203|  4.4870e-04|    0.049243|
|         490|  5.6268e+01|  5.6268e+01|   -7.862911|  4.5320e-04|    0.048819|
|         500|  5.6268e+01|  5.6268e+01|   -7.895087|  4.6179e-04|    0.048400|
|         510|  1.4001e+01|  1.4001e+01|   -7.903504|  4.5175e-04|    0.048117|
|         520|  7.2243e+00|  7.2243e+00|   -7.928372|  4.2136e-04|    0.047914|
|         530|  4.4731e+01|  4.4731e+01|   -7.962739|  4.0386e-04|    0.047801|
|         540|  2.3080e+01|  2.3080e+01|   -8.021853|  3.6747e-04|    0.047678|
|         550|  5.7431e+01|  5.7431e+01|   -8.047489|  3.6328e-04|    0.047532|
|         560|  5.7431e+01|  5.7431e+01|   -8.047362|  3.5973e-04|    0.047437|
|         570|  5.7431e+01|  5.7431e+01|   -8.127810|  3.2660e-04|    0.047304|
|         580|  5.7431e+01|  5.7431e+01|   -8.147046|  2.8285e-04|    0.047087|
|         590|  5.7431e+01|  5.7431e+01|   -8.071717|  2.6882e-04|    0.046842|
|         600|  8.2701e+00|  8.2701e+00|   -8.044616|  2.7537e-04|    0.046626|
+-----------------------------------------------------------------------+
|        File Writing Summary       |              Filename             |
+-----------------------------------------------------------------------+
|SU2 binary restart                 |restart_flow_G7.dat                |
|Paraview                           |flow_G7.vtu                        |
|Paraview surface                   |surface_flow_G7.vtu                |
+-----------------------------------------------------------------------+
+-----------------------------------------------------------------------------+
|  Inner_Iter|     Min CFL|     Max CFL|      rms[P]|  Cauchy[CD]|          CD|
+-----------------------------------------------------------------------------+
|         610|  5.1206e+01|  5.1206e+01|   -8.064059|  2.7780e-04|    0.046546|
|         620|  2.6421e+01|  2.6421e+01|   -8.063786|  2.7994e-04|    0.046473|
|         630|  1.3633e+01|  1.3633e+01|   -8.038443|  2.8334e-04|    0.046382|
|         640|  5.8619e+01|  5.8619e+01|   -8.033218|  2.7998e-04|    0.046298|
|         650|  5.8619e+01|  5.8619e+01|   -8.090664|  2.6500e-04|    0.046215|
|         660|  1.0129e+01|  1.0129e+01|   -8.122267|  2.4248e-04|    0.046189|
|         670|  6.2718e+01|  6.2718e+01|   -8.164175|  2.1478e-04|    0.046177|
|         680|  3.2361e+01|  3.2361e+01|   -8.176946|  1.8334e-04|    0.046167|
|         690|  5.5920e+01|  5.5920e+01|   -8.154879|  1.6270e-04|    0.046120|
|         700|  5.5920e+01|  5.5920e+01|   -8.119006|  1.5807e-04|    0.046045|
|         710|  5.5920e+01|  5.5920e+01|   -8.069686|  1.5696e-04|    0.045974|
|         720|  5.5920e+01|  5.5920e+01|   -8.055539|  1.4828e-04|    0.045933|
|         730|  5.5920e+01|  5.5920e+01|   -8.064663|  1.3301e-04|    0.045918|
|         740|  5.5920e+01|  5.5920e+01|   -8.083312|  1.1619e-04|    0.045918|
|         750|  5.5920e+01|  5.5920e+01|   -8.110691|  9.9916e-05|    0.045930|
|         760|  8.0525e+00|  8.0525e+00|   -8.116413|  8.9212e-05|    0.045946|
|         770|  4.9859e+01|  4.9859e+01|   -8.141643|  8.1375e-05|    0.045953|
|         780|  2.5726e+01|  2.5726e+01|   -8.146696|  7.7146e-05|    0.045960|
|         790|  5.3345e+01|  5.3345e+01|   -8.136135|  7.2853e-05|    0.045976|
|         800|  5.3345e+01|  5.3345e+01|   -8.122485|  6.7893e-05|    0.045998|
+-----------------------------------------------------------------------+
|        File Writing Summary       |              Filename             |
+-----------------------------------------------------------------------+
|SU2 binary restart                 |restart_flow_G7.dat                |
|Paraview                           |flow_G7.vtu                        |
|Paraview surface                   |surface_flow_G7.vtu                |
+-----------------------------------------------------------------------+
+-----------------------------------------------------------------------------+
|  Inner_Iter|     Min CFL|     Max CFL|      rms[P]|  Cauchy[CD]|          CD|
+-----------------------------------------------------------------------------+
|         810|  5.3345e+01|  5.3345e+01|   -8.105314|  6.5165e-05|    0.046024|
|         820|  5.3345e+01|  5.3345e+01|   -8.097356|  6.1112e-05|    0.046056|
|         830|  5.3345e+01|  5.3345e+01|   -8.101774|  5.3743e-05|    0.046089|
|         840|  5.3345e+01|  5.3345e+01|   -8.112376|  4.5264e-05|    0.046122|
|         850|  5.3345e+01|  5.3345e+01|   -8.118169|  3.8111e-05|    0.046159|
|         860|  5.3345e+01|  5.3345e+01|   -8.113429|  3.6638e-05|    0.046202|
|         870|  5.3345e+01|  5.3345e+01|   -8.104150|  3.5617e-05|    0.046250|
|         880|  5.3345e+01|  5.3345e+01|   -8.099378|  3.3884e-05|    0.046298|
|         890|  5.3345e+01|  5.3345e+01|   -8.104456|  3.2281e-05|    0.046342|
|         900|  5.3345e+01|  5.3345e+01|   -8.120054|  3.0554e-05|    0.046381|
|         910|  2.2938e+01|  2.2938e+01|   -8.136369|  3.0270e-05|    0.046400|
|         920|  1.1835e+01|  1.1835e+01|   -8.144006|  3.0501e-05|    0.046417|
|         930|  6.1067e+00|  6.1067e+00|   -8.158512|  3.0924e-05|    0.046438|
|         940|  3.7811e+01|  3.7811e+01|   -8.169969|  2.9510e-05|    0.046450|
|         950|  5.4448e+01|  5.4448e+01|   -8.186592|  2.8049e-05|    0.046489|
|         960|  5.4448e+01|  5.4448e+01|   -8.212660|  2.6836e-05|    0.046529|
|         970|  5.4448e+01|  5.4448e+01|   -8.240125|  2.6739e-05|    0.046568|
|         980|  5.4448e+01|  5.4448e+01|   -8.268922|  2.7686e-05|    0.046607|
|         990|  6.5338e+00|  6.5338e+00|   -8.299500|  2.9010e-05|    0.046643|
|        1000|  4.0456e+01|  4.0456e+01|   -8.319209|  2.8909e-05|    0.046653|
+-----------------------------------------------------------------------+
|        File Writing Summary       |              Filename             |
+-----------------------------------------------------------------------+
|SU2 binary restart                 |restart_flow_G7.dat                |
|Paraview                           |flow_G7.vtu                        |
|Paraview surface                   |surface_flow_G7.vtu                |
+-----------------------------------------------------------------------+
+-----------------------------------------------------------------------------+
|  Inner_Iter|     Min CFL|     Max CFL|      rms[P]|  Cauchy[CD]|          CD|
+-----------------------------------------------------------------------------+
|        1010|  2.0874e+01|  2.0874e+01|   -8.330838|  2.8757e-05|    0.046665|
|        1020|  1.0771e+01|  1.0771e+01|   -8.333509|  2.9062e-05|    0.046679|
|        1030|  5.5574e+01|  5.5574e+01|   -8.361835|  2.9366e-05|    0.046694|
|        1040|  5.5574e+01|  5.5574e+01|   -8.383173|  3.0030e-05|    0.046726|
|        1050|  5.5574e+01|  5.5574e+01|   -8.409075|  3.0290e-05|    0.046755|
|        1060|  5.5574e+01|  5.5574e+01|   -8.429200|  3.0234e-05|    0.046780|
|        1070|  5.5574e+01|  5.5574e+01|   -8.444430|  2.9822e-05|    0.046801|
|        1080|  5.5574e+01|  5.5574e+01|   -8.456556|  2.9178e-05|    0.046818|
|        1090|  5.5574e+01|  5.5574e+01|   -8.468324|  2.8443e-05|    0.046833|
|        1100|  5.5574e+01|  5.5574e+01|   -8.479756|  2.7568e-05|    0.046848|
|        1110|  5.5574e+01|  5.5574e+01|   -8.488882|  2.6379e-05|    0.046861|
|        1120|  5.5574e+01|  5.5574e+01|   -8.492712|  2.4879e-05|    0.046872|
|        1130|  5.5574e+01|  5.5574e+01|   -8.488574|  2.3240e-05|    0.046879|
|        1140|  5.5574e+01|  5.5574e+01|   -8.477735|  2.1601e-05|    0.046882|
|        1150|  9.6032e+00|  9.6032e+00|   -8.444608|  2.0032e-05|    0.046881|
|        1160|  5.9460e+01|  5.9460e+01|   -8.474616|  1.9391e-05|    0.046879|
|        1170|  3.0680e+01|  3.0680e+01|   -8.480533|  1.8742e-05|    0.046877|
|        1180|  5.3016e+01|  5.3016e+01|   -8.450863|  1.7999e-05|    0.046875|
|        1190|  5.3016e+01|  5.3016e+01|   -8.438856|  1.7747e-05|    0.046870|
|        1200|  5.3016e+01|  5.3016e+01|   -8.425253|  1.6586e-05|    0.046860|
+-----------------------------------------------------------------------+
|        File Writing Summary       |              Filename             |
+-----------------------------------------------------------------------+
|SU2 binary restart                 |restart_flow_G7.dat                |
|Paraview                           |flow_G7.vtu                        |
|Paraview surface                   |surface_flow_G7.vtu                |
+-----------------------------------------------------------------------+
+-----------------------------------------------------------------------------+
|  Inner_Iter|     Min CFL|     Max CFL|      rms[P]|  Cauchy[CD]|          CD|
+-----------------------------------------------------------------------------+
|        1210|  5.3016e+01|  5.3016e+01|   -8.409951|  1.5456e-05|    0.046848|
|        1220|  5.3016e+01|  5.3016e+01|   -8.392883|  1.4465e-05|    0.046834|
|        1230|  5.3016e+01|  5.3016e+01|   -8.375469|  1.3645e-05|    0.046815|
|        1240|  5.3016e+01|  5.3016e+01|   -8.359842|  1.3100e-05|    0.046793|
|        1250|  5.3016e+01|  5.3016e+01|   -8.348034|  1.3726e-05|    0.046767|
|        1260|  5.3016e+01|  5.3016e+01|   -8.340225|  1.4376e-05|    0.046739|
|        1270|  5.3016e+01|  5.3016e+01|   -8.335853|  1.5050e-05|    0.046708|
|        1280|  5.3016e+01|  5.3016e+01|   -8.334352|  1.5873e-05|    0.046672|
|        1290|  5.3016e+01|  5.3016e+01|   -8.335385|  1.6145e-05|    0.046633|
|        1300|  5.3016e+01|  5.3016e+01|   -8.339084|  1.6668e-05|    0.046592|
|        1310|  5.3016e+01|  5.3016e+01|   -8.345740|  1.7469e-05|    0.046547|
|        1320|  5.3016e+01|  5.3016e+01|   -8.356033|  1.8557e-05|    0.046498|
|        1330|  5.3016e+01|  5.3016e+01|   -8.369941|  1.9948e-05|    0.046446|
|        1340|  5.3016e+01|  5.3016e+01|   -8.386479|  2.1558e-05|    0.046391|
|        1350|  5.3016e+01|  5.3016e+01|   -8.404503|  2.3296e-05|    0.046333|
|        1360|  5.3016e+01|  5.3016e+01|   -8.423500|  2.5189e-05|    0.046272|
|        1370|  5.3016e+01|  5.3016e+01|   -8.443192|  2.7305e-05|    0.046209|
|        1380|  1.0993e+01|  1.0993e+01|   -8.452451|  2.8753e-05|    0.046166|
|        1390|  5.6723e+00|  5.6723e+00|   -8.474774|  3.0139e-05|    0.046128|
|        1400|  3.5121e+01|  3.5121e+01|   -8.486712|  3.0892e-05|    0.046109|
+-----------------------------------------------------------------------+
|        File Writing Summary       |              Filename             |
+-----------------------------------------------------------------------+
|SU2 binary restart                 |restart_flow_G7.dat                |
|Paraview                           |flow_G7.vtu                        |
|Paraview surface                   |surface_flow_G7.vtu                |
+-----------------------------------------------------------------------+
+-----------------------------------------------------------------------------+
|  Inner_Iter|     Min CFL|     Max CFL|      rms[P]|  Cauchy[CD]|          CD|
+-----------------------------------------------------------------------------+
|        1410|  5.0575e+01|  5.0575e+01|   -8.492395|  3.3225e-05|    0.046048|
|        1420|  5.0575e+01|  5.0575e+01|   -8.511088|  3.5836e-05|    0.045981|
|        1430|  5.0575e+01|  5.0575e+01|   -8.525421|  3.8535e-05|    0.045912|
|        1440|  5.0575e+01|  5.0575e+01|   -8.538480|  4.1181e-05|    0.045840|
|        1450|  5.0575e+01|  5.0575e+01|   -8.549814|  4.3685e-05|    0.045768|
|        1460|  5.0575e+01|  5.0575e+01|   -8.559771|  4.6157e-05|    0.045694|
|        1470|  5.0575e+01|  5.0575e+01|   -8.568263|  4.8585e-05|    0.045619|
|        1480|  5.0575e+01|  5.0575e+01|   -8.575363|  5.0859e-05|    0.045544|
|        1490|  5.0575e+01|  5.0575e+01|   -8.580966|  5.2965e-05|    0.045469|
|        1500|  5.0575e+01|  5.0575e+01|   -8.584802|  5.4973e-05|    0.045393|
|        1510|  5.0575e+01|  5.0575e+01|   -8.587353|  5.6905e-05|    0.045317|
|        1520|  5.0575e+01|  5.0575e+01|   -8.588718|  5.8723e-05|    0.045240|
|        1530|  5.0575e+01|  5.0575e+01|   -8.589383|  6.0403e-05|    0.045162|
|        1540|  5.0575e+01|  5.0575e+01|   -8.589964|  6.1945e-05|    0.045085|
|        1550|  5.0575e+01|  5.0575e+01|   -8.590639|  6.3354e-05|    0.045008|
|        1560|  5.0575e+01|  5.0575e+01|   -8.591148|  6.4626e-05|    0.044931|
|        1570|  5.0575e+01|  5.0575e+01|   -8.591189|  6.5748e-05|    0.044854|
|        1580|  5.0575e+01|  5.0575e+01|   -8.590895|  6.6713e-05|    0.044778|
|        1590|  5.0575e+01|  5.0575e+01|   -8.590745|  6.7540e-05|    0.044702|
|        1600|  5.0575e+01|  5.0575e+01|   -8.591300|  6.8252e-05|    0.044627|
+-----------------------------------------------------------------------+
|        File Writing Summary       |              Filename             |
+-----------------------------------------------------------------------+
|SU2 binary restart                 |restart_flow_G7.dat                |
|Paraview                           |flow_G7.vtu                        |
|Paraview surface                   |surface_flow_G7.vtu                |
+-----------------------------------------------------------------------+
+-----------------------------------------------------------------------------+
|  Inner_Iter|     Min CFL|     Max CFL|      rms[P]|  Cauchy[CD]|          CD|
+-----------------------------------------------------------------------------+
|        1610|  5.0575e+01|  5.0575e+01|   -8.592900|  6.8846e-05|    0.044551|
|        1620|  5.0575e+01|  5.0575e+01|   -8.595691|  6.9311e-05|    0.044476|
|        1630|  5.0575e+01|  5.0575e+01|   -8.599695|  7.0576e-05|    0.044401|
|        1640|  5.0575e+01|  5.0575e+01|   -8.604876|  7.2048e-05|    0.044327|
|        1650|  5.0575e+01|  5.0575e+01|   -8.611234|  7.4233e-05|    0.044253|
|        1660|  5.0575e+01|  5.0575e+01|   -8.618845|  7.4754e-05|    0.044179|
|        1670|  5.0575e+01|  5.0575e+01|   -8.627742|  7.5023e-05|    0.044106|
|        1680|  5.0575e+01|  5.0575e+01|   -8.637912|  7.5168e-05|    0.044033|
|        1690|  5.0575e+01|  5.0575e+01|   -8.649191|  7.5230e-05|    0.043960|
|        1700|  1.0487e+01|  1.0487e+01|   -8.656926|  7.4241e-05|    0.043912|
|        1710|  5.4112e+00|  5.4112e+00|   -8.671765|  7.2901e-05|    0.043872|
|        1720|  3.3504e+01|  3.3504e+01|   -8.684404|  7.0728e-05|    0.043851|
|        1730|  4.8246e+01|  4.8246e+01|   -8.681263|  7.0297e-05|    0.043786|
|        1740|  4.8246e+01|  4.8246e+01|   -8.693819|  7.0031e-05|    0.043718|
|        1750|  4.8246e+01|  4.8246e+01|   -8.704891|  6.9780e-05|    0.043649|
|        1760|  4.8246e+01|  4.8246e+01|   -8.715666|  6.9504e-05|    0.043579|
|        1770|  4.8246e+01|  4.8246e+01|   -8.726642|  6.9184e-05|    0.043510|
|        1780|  4.8246e+01|  4.8246e+01|   -8.737099|  6.8841e-05|    0.043441|
|        1790|  4.8246e+01|  4.8246e+01|   -8.746587|  6.8500e-05|    0.043372|
|        1800|  4.8246e+01|  4.8246e+01|   -8.755304|  6.8171e-05|    0.043303|
+-----------------------------------------------------------------------+
|        File Writing Summary       |              Filename             |
+-----------------------------------------------------------------------+
|SU2 binary restart                 |restart_flow_G7.dat                |
|Paraview                           |flow_G7.vtu                        |
|Paraview surface                   |surface_flow_G7.vtu                |
+-----------------------------------------------------------------------+
+-----------------------------------------------------------------------------+
|  Inner_Iter|     Min CFL|     Max CFL|      rms[P]|  Cauchy[CD]|          CD|
+-----------------------------------------------------------------------------+
|        1810|  4.8246e+01|  4.8246e+01|   -8.763435|  6.7832e-05|    0.043235|
|        1820|  4.8246e+01|  4.8246e+01|   -8.770658|  6.7486e-05|    0.043167|
|        1830|  4.8246e+01|  4.8246e+01|   -8.777320|  6.7153e-05|    0.043099|
|        1840|  4.8246e+01|  4.8246e+01|   -8.783740|  6.6832e-05|    0.043032|
|        1850|  4.8246e+01|  4.8246e+01|   -8.789940|  6.6504e-05|    0.042964|
|        1860|  4.8246e+01|  4.8246e+01|   -8.795878|  6.6162e-05|    0.042897|
|        1870|  4.8246e+01|  4.8246e+01|   -8.801453|  6.5811e-05|    0.042831|
|        1880|  4.8246e+01|  4.8246e+01|   -8.806700|  6.5456e-05|    0.042765|
|        1890|  4.8246e+01|  4.8246e+01|   -8.811664|  6.5094e-05|    0.042700|
|        1900|  4.8246e+01|  4.8246e+01|   -8.816347|  6.4717e-05|    0.042635|
|        1910|  4.8246e+01|  4.8246e+01|   -8.820619|  6.4320e-05|    0.042571|
|        1920|  4.8246e+01|  4.8246e+01|   -8.824460|  6.3903e-05|    0.042508|
|        1930|  4.8246e+01|  4.8246e+01|   -8.827952|  6.3466e-05|    0.042446|
|        1940|  4.8246e+01|  4.8246e+01|   -8.831172|  6.3004e-05|    0.042385|
|        1950|  4.8246e+01|  4.8246e+01|   -8.834113|  6.3515e-05|    0.042324|
|        1960|  4.8246e+01|  4.8246e+01|   -8.836674|  6.4287e-05|    0.042265|
|        1970|  4.8246e+01|  4.8246e+01|   -8.838841|  6.5808e-05|    0.042206|
|        1980|  4.8246e+01|  4.8246e+01|   -8.840713|  6.5535e-05|    0.042148|
|        1990|  4.8246e+01|  4.8246e+01|   -8.842419|  6.5065e-05|    0.042091|
|        2000|  4.8246e+01|  4.8246e+01|   -8.843961|  6.4536e-05|    0.042035|
+-----------------------------------------------------------------------+
|        File Writing Summary       |              Filename             |
+-----------------------------------------------------------------------+
|SU2 binary restart                 |restart_flow_G7.dat                |
|Paraview                           |flow_G7.vtu                        |
|Paraview surface                   |surface_flow_G7.vtu                |
+-----------------------------------------------------------------------+
+-----------------------------------------------------------------------------+
|  Inner_Iter|     Min CFL|     Max CFL|      rms[P]|  Cauchy[CD]|          CD|
+-----------------------------------------------------------------------------+
|        2010|  4.8246e+01|  4.8246e+01|   -8.845285|  6.3966e-05|    0.041980|
|        2020|  4.8246e+01|  4.8246e+01|   -8.846319|  6.3374e-05|    0.041926|
|        2030|  4.8246e+01|  4.8246e+01|   -8.847052|  6.2757e-05|    0.041872|
|        2040|  4.8246e+01|  4.8246e+01|   -8.847500|  6.2114e-05|    0.041819|
|        2050|  4.8246e+01|  4.8246e+01|   -8.847685|  6.1446e-05|    0.041767|
|        2060|  4.8246e+01|  4.8246e+01|   -8.847671|  6.0774e-05|    0.041716|
|        2070|  4.8246e+01|  4.8246e+01|   -8.847471|  6.0100e-05|    0.041665|
|        2080|  4.8246e+01|  4.8246e+01|   -8.847095|  5.9407e-05|    0.041614|
|        2090|  4.8246e+01|  4.8246e+01|   -8.846610|  5.8695e-05|    0.041564|
|        2100|  4.8246e+01|  4.8246e+01|   -8.846087|  5.7980e-05|    0.041515|
|        2110|  4.8246e+01|  4.8246e+01|   -8.845605|  5.7272e-05|    0.041465|
|        2120|  4.8246e+00|  4.8246e+00|   -8.845249|  5.6576e-05|    0.041416|
|        2130|  2.9873e+01|  2.9873e+01|   -8.860523|  5.4465e-05|    0.041403|
|        2140|  1.5414e+01|  1.5414e+01|   -8.858973|  5.2732e-05|    0.041381|
|        2150|  4.6025e+01|  4.6025e+01|   -8.849431|  5.1503e-05|    0.041348|
|        2160|  4.6025e+01|  4.6025e+01|   -8.847736|  5.0760e-05|    0.041302|
|        2170|  4.6025e+01|  4.6025e+01|   -8.848856|  5.0077e-05|    0.041256|
|        2180|  4.6025e+01|  4.6025e+01|   -8.849188|  4.9423e-05|    0.041210|
|        2190|  4.6025e+01|  4.6025e+01|   -8.850371|  4.8800e-05|    0.041165|
|        2200|  4.6025e+01|  4.6025e+01|   -8.852081|  4.8211e-05|    0.041119|
+-----------------------------------------------------------------------+
|        File Writing Summary       |              Filename             |
+-----------------------------------------------------------------------+
|SU2 binary restart                 |restart_flow_G7.dat                |
|Paraview                           |flow_G7.vtu                        |
|Paraview surface                   |surface_flow_G7.vtu                |
+-----------------------------------------------------------------------+
+-----------------------------------------------------------------------------+
|  Inner_Iter|     Min CFL|     Max CFL|      rms[P]|  Cauchy[CD]|          CD|
+-----------------------------------------------------------------------------+
|        2210|  4.6025e+01|  4.6025e+01|   -8.854134|  4.7653e-05|    0.041073|
|        2220|  4.6025e+01|  4.6025e+01|   -8.856419|  4.7128e-05|    0.041028|
|        2230|  4.6025e+01|  4.6025e+01|   -8.858906|  4.6630e-05|    0.040982|
|        2240|  4.6025e+01|  4.6025e+01|   -8.861571|  4.6150e-05|    0.040937|
|        2250|  4.6025e+01|  4.6025e+01|   -8.864195|  4.5692e-05|    0.040893|
|        2260|  4.6025e+01|  4.6025e+01|   -8.866833|  4.5269e-05|    0.040848|
|        2270|  4.6025e+01|  4.6025e+01|   -8.869378|  4.4879e-05|    0.040804|
|        2280|  4.6025e+01|  4.6025e+01|   -8.871704|  4.4513e-05|    0.040759|
|        2290|  4.6025e+01|  4.6025e+01|   -8.873797|  4.4165e-05|    0.040715|
|        2300|  4.6025e+01|  4.6025e+01|   -8.875703|  4.3834e-05|    0.040671|
|        2310|  4.6025e+01|  4.6025e+01|   -8.877382|  4.3516e-05|    0.040628|
|        2320|  4.6025e+01|  4.6025e+01|   -8.878837|  4.3209e-05|    0.040585|
|        2330|  4.6025e+01|  4.6025e+01|   -8.880083|  4.2908e-05|    0.040542|
|        2340|  4.6025e+01|  4.6025e+01|   -8.881065|  4.2612e-05|    0.040499|
|        2350|  4.6025e+01|  4.6025e+01|   -8.881754|  4.2321e-05|    0.040457|
|        2360|  4.6025e+01|  4.6025e+01|   -8.882215|  4.2031e-05|    0.040415|
|        2370|  4.6025e+01|  4.6025e+01|   -8.882591|  4.1740e-05|    0.040373|
|        2380|  4.6025e+01|  4.6025e+01|   -8.882951|  4.2872e-05|    0.040331|
|        2390|  4.6025e+01|  4.6025e+01|   -8.883290|  4.3638e-05|    0.040290|
|        2400|  4.6025e+01|  4.6025e+01|   -8.883577|  4.3913e-05|    0.040250|
+-----------------------------------------------------------------------+
|        File Writing Summary       |              Filename             |
+-----------------------------------------------------------------------+
|SU2 binary restart                 |restart_flow_G7.dat                |
|Paraview                           |flow_G7.vtu                        |
|Paraview surface                   |surface_flow_G7.vtu                |
+-----------------------------------------------------------------------+
+-----------------------------------------------------------------------------+
|  Inner_Iter|     Min CFL|     Max CFL|      rms[P]|  Cauchy[CD]|          CD|
+-----------------------------------------------------------------------------+
|        2410|  4.6025e+01|  4.6025e+01|   -8.883833|  4.3723e-05|    0.040209|
|        2420|  4.6025e+01|  4.6025e+01|   -8.884084|  4.3491e-05|    0.040169|
|        2430|  4.6025e+01|  4.6025e+01|   -8.884335|  4.3249e-05|    0.040129|
|        2440|  4.6025e+01|  4.6025e+01|   -8.884588|  4.2999e-05|    0.040090|
|        2450|  4.6025e+01|  4.6025e+01|   -8.884830|  4.2741e-05|    0.040050|
|        2460|  4.6025e+01|  4.6025e+01|   -8.885060|  4.2480e-05|    0.040011|
|        2470|  4.6025e+01|  4.6025e+01|   -8.885284|  4.2213e-05|    0.039972|
|        2480|  4.6025e+01|  4.6025e+01|   -8.885495|  4.1943e-05|    0.039934|
|        2490|  4.6025e+01|  4.6025e+01|   -8.885769|  4.1683e-05|    0.039895|
|        2500|  4.6025e+01|  4.6025e+01|   -8.886131|  4.1432e-05|    0.039857|
|        2510|  4.6025e+01|  4.6025e+01|   -8.886565|  4.1177e-05|    0.039819|
|        2520|  4.6025e+01|  4.6025e+01|   -8.887071|  4.0917e-05|    0.039781|
|        2530|  4.6025e+01|  4.6025e+01|   -8.887631|  4.0659e-05|    0.039743|
|        2540|  4.6025e+01|  4.6025e+01|   -8.888226|  4.0408e-05|    0.039705|
|        2550|  4.6025e+01|  4.6025e+01|   -8.888806|  4.0163e-05|    0.039667|
|        2560|  4.6025e+01|  4.6025e+01|   -8.889374|  3.9924e-05|    0.039630|
|        2570|  4.6025e+01|  4.6025e+01|   -8.889943|  3.9694e-05|    0.039592|
|        2580|  4.6025e+01|  4.6025e+01|   -8.890505|  3.9475e-05|    0.039555|
|        2590|  4.6025e+01|  4.6025e+01|   -8.891092|  3.9268e-05|    0.039517|
|        2600|  4.6025e+01|  4.6025e+01|   -8.891724|  3.9070e-05|    0.039480|
+-----------------------------------------------------------------------+
|        File Writing Summary       |              Filename             |
+-----------------------------------------------------------------------+
|SU2 binary restart                 |restart_flow_G7.dat                |
|Paraview                           |flow_G7.vtu                        |
|Paraview surface                   |surface_flow_G7.vtu                |
+-----------------------------------------------------------------------+
+-----------------------------------------------------------------------------+
|  Inner_Iter|     Min CFL|     Max CFL|      rms[P]|  Cauchy[CD]|          CD|
+-----------------------------------------------------------------------------+
|        2610|  4.6025e+01|  4.6025e+01|   -8.892384|  3.8881e-05|    0.039443|
|        2620|  4.6025e+01|  4.6025e+01|   -8.893064|  3.8704e-05|    0.039405|
|        2630|  4.6025e+01|  4.6025e+01|   -8.893744|  3.8538e-05|    0.039368|
|        2640|  4.6025e+01|  4.6025e+01|   -8.894411|  3.8384e-05|    0.039331|
|        2650|  4.6025e+01|  4.6025e+01|   -8.895001|  3.8238e-05|    0.039294|
|        2660|  4.6025e+01|  4.6025e+01|   -8.895590|  3.8099e-05|    0.039257|
|        2670|  4.6025e+01|  4.6025e+01|   -8.896197|  3.7967e-05|    0.039220|
|        2680|  4.6025e+01|  4.6025e+01|   -8.896848|  3.7843e-05|    0.039183|
|        2690|  4.6025e+01|  4.6025e+01|   -8.897579|  3.7727e-05|    0.039146|
|        2700|  4.6025e+01|  4.6025e+01|   -8.898424|  3.7618e-05|    0.039110|
|        2710|  4.6025e+01|  4.6025e+01|   -8.899363|  3.7516e-05|    0.039073|
|        2720|  4.6025e+01|  4.6025e+01|   -8.900393|  3.7420e-05|    0.039037|
|        2730|  4.6025e+01|  4.6025e+01|   -8.901557|  3.7326e-05|    0.039001|
|        2740|  4.6025e+01|  4.6025e+01|   -8.902792|  3.7233e-05|    0.038965|
|        2750|  4.6025e+01|  4.6025e+01|   -8.904120|  3.7139e-05|    0.038929|
|        2760|  4.6025e+01|  4.6025e+01|   -8.905505|  3.7043e-05|    0.038893|
|        2770|  4.6025e+01|  4.6025e+01|   -8.906932|  3.6947e-05|    0.038857|
|        2780|  4.6025e+01|  4.6025e+01|   -8.908465|  3.6850e-05|    0.038822|
|        2790|  4.6025e+01|  4.6025e+01|   -8.910036|  3.6752e-05|    0.038786|
|        2800|  4.6025e+01|  4.6025e+01|   -8.911716|  3.6653e-05|    0.038751|
+-----------------------------------------------------------------------+
|        File Writing Summary       |              Filename             |
+-----------------------------------------------------------------------+
|SU2 binary restart                 |restart_flow_G7.dat                |
|Paraview                           |flow_G7.vtu                        |
|Paraview surface                   |surface_flow_G7.vtu                |
+-----------------------------------------------------------------------+
+-----------------------------------------------------------------------------+
|  Inner_Iter|     Min CFL|     Max CFL|      rms[P]|  Cauchy[CD]|          CD|
+-----------------------------------------------------------------------------+
|        2810|  4.6025e+01|  4.6025e+01|   -8.913440|  3.6552e-05|    0.038716|
|        2820|  4.6025e+01|  4.6025e+01|   -8.915213|  3.6447e-05|    0.038681|
|        2830|  4.6025e+01|  4.6025e+01|   -8.916976|  3.6338e-05|    0.038646|
|        2840|  4.6025e+01|  4.6025e+01|   -8.918718|  3.6226e-05|    0.038612|
|        2850|  4.6025e+01|  4.6025e+01|   -8.920409|  3.6109e-05|    0.038577|
|        2860|  4.6025e+01|  4.6025e+01|   -8.922048|  3.5987e-05|    0.038543|
|        2870|  4.6025e+01|  4.6025e+01|   -8.923634|  3.5863e-05|    0.038509|
|        2880|  4.6025e+01|  4.6025e+01|   -8.925190|  3.5736e-05|    0.038475|
|        2890|  4.6025e+01|  4.6025e+01|   -8.926736|  3.5606e-05|    0.038441|
|        2900|  4.6025e+01|  4.6025e+01|   -8.928301|  3.5475e-05|    0.038407|
|        2910|  4.6025e+01|  4.6025e+01|   -8.929853|  3.5343e-05|    0.038373|
|        2920|  4.6025e+01|  4.6025e+01|   -8.931378|  3.5208e-05|    0.038340|
|        2930|  4.6025e+01|  4.6025e+01|   -8.932904|  3.5073e-05|    0.038306|
|        2940|  4.6025e+01|  4.6025e+01|   -8.934391|  3.4937e-05|    0.038273|
|        2950|  4.6025e+01|  4.6025e+01|   -8.935831|  3.4799e-05|    0.038240|
|        2960|  4.6025e+01|  4.6025e+01|   -8.937227|  3.4660e-05|    0.038207|
|        2970|  4.6025e+01|  4.6025e+01|   -8.938582|  3.4520e-05|    0.038174|
|        2980|  4.6025e+01|  4.6025e+01|   -8.939937|  3.4382e-05|    0.038141|
|        2990|  4.6025e+01|  4.6025e+01|   -8.941291|  3.4244e-05|    0.038108|
|        3000|  4.6025e+01|  4.6025e+01|   -8.942693|  3.4107e-05|    0.038076|
+-----------------------------------------------------------------------+
|        File Writing Summary       |              Filename             |
+-----------------------------------------------------------------------+
|SU2 binary restart                 |restart_flow_G7.dat                |
|Paraview                           |flow_G7.vtu                        |
|Paraview surface                   |surface_flow_G7.vtu                |
+-----------------------------------------------------------------------+
+-----------------------------------------------------------------------------+
|  Inner_Iter|     Min CFL|     Max CFL|      rms[P]|  Cauchy[CD]|          CD|
+-----------------------------------------------------------------------------+
|        3010|  4.6025e+01|  4.6025e+01|   -8.944091|  3.3972e-05|    0.038043|
|        3020|  4.6025e+01|  4.6025e+01|   -8.945548|  3.3838e-05|    0.038011|
|        3030|  4.6025e+01|  4.6025e+01|   -8.947033|  3.3704e-05|    0.037979|
|        3040|  4.6025e+01|  4.6025e+01|   -8.948551|  3.3570e-05|    0.037947|
|        3050|  4.6025e+01|  4.6025e+01|   -8.950060|  3.3436e-05|    0.037915|
|        3060|  4.6025e+01|  4.6025e+01|   -8.951536|  3.3303e-05|    0.037883|
|        3070|  4.6025e+01|  4.6025e+01|   -8.953062|  3.3169e-05|    0.037852|
|        3080|  4.6025e+01|  4.6025e+01|   -8.954604|  3.3036e-05|    0.037820|
|        3090|  4.6025e+01|  4.6025e+01|   -8.956163|  3.2903e-05|    0.037789|
|        3100|  4.6025e+01|  4.6025e+01|   -8.957784|  3.2771e-05|    0.037758|
|        3110|  4.6025e+01|  4.6025e+01|   -8.959464|  3.2639e-05|    0.037727|
|        3120|  4.6025e+01|  4.6025e+01|   -8.961184|  3.2508e-05|    0.037696|
|        3130|  4.6025e+01|  4.6025e+01|   -8.962958|  3.2376e-05|    0.037665|
|        3140|  4.6025e+01|  4.6025e+01|   -8.964754|  3.2242e-05|    0.037635|
|        3150|  4.6025e+01|  4.6025e+01|   -8.966538|  3.2108e-05|    0.037604|
|        3160|  4.6025e+01|  4.6025e+01|   -8.968290|  3.1972e-05|    0.037574|
|        3170|  4.6025e+01|  4.6025e+01|   -8.970034|  3.1836e-05|    0.037544|
|        3180|  4.6025e+01|  4.6025e+01|   -8.971750|  3.1700e-05|    0.037514|
|        3190|  4.6025e+01|  4.6025e+01|   -8.973491|  3.1563e-05|    0.037484|
|        3200|  4.6025e+01|  4.6025e+01|   -8.975232|  3.1426e-05|    0.037454|
+-----------------------------------------------------------------------+
|        File Writing Summary       |              Filename             |
+-----------------------------------------------------------------------+
|SU2 binary restart                 |restart_flow_G7.dat                |
|Paraview                           |flow_G7.vtu                        |
|Paraview surface                   |surface_flow_G7.vtu                |
+-----------------------------------------------------------------------+
+-----------------------------------------------------------------------------+
|  Inner_Iter|     Min CFL|     Max CFL|      rms[P]|  Cauchy[CD]|          CD|
+-----------------------------------------------------------------------------+
|        3210|  4.6025e+01|  4.6025e+01|   -8.977027|  3.1289e-05|    0.037425|
|        3220|  4.6025e+01|  4.6025e+01|   -8.978845|  3.1151e-05|    0.037395|
|        3230|  4.6025e+01|  4.6025e+01|   -8.980665|  3.1014e-05|    0.037366|
|        3240|  4.6025e+01|  4.6025e+01|   -8.982480|  3.0876e-05|    0.037337|
|        3250|  4.6025e+01|  4.6025e+01|   -8.984305|  3.0737e-05|    0.037307|
|        3260|  4.6025e+01|  4.6025e+01|   -8.986102|  3.0598e-05|    0.037279|
|        3270|  4.6025e+01|  4.6025e+01|   -8.987875|  3.0459e-05|    0.037250|
|        3280|  4.6025e+01|  4.6025e+01|   -8.989625|  3.0320e-05|    0.037221|
|        3290|  4.6025e+01|  4.6025e+01|   -8.991381|  3.0182e-05|    0.037192|
|        3300|  4.6025e+01|  4.6025e+01|   -8.993127|  3.0044e-05|    0.037164|
|        3310|  4.6025e+01|  4.6025e+01|   -8.994886|  2.9907e-05|    0.037136|
|        3320|  4.6025e+01|  4.6025e+01|   -8.996667|  2.9771e-05|    0.037108|
|        3330|  4.6025e+01|  4.6025e+01|   -8.998458|  2.9637e-05|    0.037079|
|        3340|  4.6025e+01|  4.6025e+01|   -9.000223|  2.9502e-05|    0.037052|
|        3350|  4.6025e+01|  4.6025e+01|   -9.001970|  2.9368e-05|    0.037024|
|        3360|  4.6025e+01|  4.6025e+01|   -9.003698|  2.9234e-05|    0.036996|
|        3370|  4.6025e+01|  4.6025e+01|   -9.005416|  2.9100e-05|    0.036968|
|        3380|  4.6025e+01|  4.6025e+01|   -9.007109|  2.8967e-05|    0.036941|
|        3390|  4.6025e+01|  4.6025e+01|   -9.008781|  2.8833e-05|    0.036914|
|        3400|  4.6025e+01|  4.6025e+01|   -9.010422|  2.8701e-05|    0.036887|
+-----------------------------------------------------------------------+
|        File Writing Summary       |              Filename             |
+-----------------------------------------------------------------------+
|SU2 binary restart                 |restart_flow_G7.dat                |
|Paraview                           |flow_G7.vtu                        |
|Paraview surface                   |surface_flow_G7.vtu                |
+-----------------------------------------------------------------------+
+-----------------------------------------------------------------------------+
|  Inner_Iter|     Min CFL|     Max CFL|      rms[P]|  Cauchy[CD]|          CD|
+-----------------------------------------------------------------------------+
|        3410|  4.6025e+01|  4.6025e+01|   -9.012081|  2.8569e-05|    0.036860|
|        3420|  4.6025e+01|  4.6025e+01|   -9.013739|  2.8438e-05|    0.036833|
|        3430|  4.6025e+01|  4.6025e+01|   -9.015417|  2.8307e-05|    0.036806|
|        3440|  4.6025e+01|  4.6025e+01|   -9.017109|  2.8177e-05|    0.036779|
|        3450|  4.6025e+01|  4.6025e+01|   -9.018835|  2.8046e-05|    0.036753|
|        3460|  4.6025e+01|  4.6025e+01|   -9.020541|  2.7915e-05|    0.036727|
|        3470|  4.6025e+01|  4.6025e+01|   -9.022250|  2.7783e-05|    0.036701|
|        3480|  4.6025e+01|  4.6025e+01|   -9.023924|  2.7651e-05|    0.036674|
|        3490|  4.6025e+01|  4.6025e+01|   -9.025588|  2.7518e-05|    0.036649|
|        3500|  4.6025e+01|  4.6025e+01|   -9.027231|  2.7385e-05|    0.036623|
|        3510|  4.6025e+01|  4.6025e+01|   -9.028898|  2.7252e-05|    0.036597|
|        3520|  4.6025e+01|  4.6025e+01|   -9.030578|  2.7120e-05|    0.036572|
|        3530|  4.6025e+01|  4.6025e+01|   -9.032273|  2.6987e-05|    0.036546|
|        3540|  4.6025e+01|  4.6025e+01|   -9.034005|  2.6854e-05|    0.036521|
|        3550|  4.6025e+01|  4.6025e+01|   -9.035757|  2.6721e-05|    0.036496|
|        3560|  4.6025e+01|  4.6025e+01|   -9.037522|  2.6588e-05|    0.036471|
|        3570|  4.6025e+01|  4.6025e+01|   -9.039272|  2.6454e-05|    0.036446|
|        3580|  4.6025e+01|  4.6025e+01|   -9.041030|  2.6321e-05|    0.036421|
|        3590|  4.6025e+01|  4.6025e+01|   -9.042769|  2.6187e-05|    0.036397|
|        3600|  4.6025e+01|  4.6025e+01|   -9.044509|  2.6054e-05|    0.036372|
+-----------------------------------------------------------------------+
|        File Writing Summary       |              Filename             |
+-----------------------------------------------------------------------+
|SU2 binary restart                 |restart_flow_G7.dat                |
|Paraview                           |flow_G7.vtu                        |
|Paraview surface                   |surface_flow_G7.vtu                |
+-----------------------------------------------------------------------+
+-----------------------------------------------------------------------------+
|  Inner_Iter|     Min CFL|     Max CFL|      rms[P]|  Cauchy[CD]|          CD|
+-----------------------------------------------------------------------------+
|        3610|  4.6025e+01|  4.6025e+01|   -9.046244|  2.5922e-05|    0.036348|
|        3620|  4.6025e+01|  4.6025e+01|   -9.047997|  2.5790e-05|    0.036324|
|        3630|  4.6025e+01|  4.6025e+01|   -9.049785|  2.5659e-05|    0.036300|
|        3640|  4.6025e+01|  4.6025e+01|   -9.051591|  2.5528e-05|    0.036276|
|        3650|  4.6025e+01|  4.6025e+01|   -9.053413|  2.5398e-05|    0.036252|
|        3660|  4.6025e+01|  4.6025e+01|   -9.055247|  2.5269e-05|    0.036228|
|        3670|  4.6025e+01|  4.6025e+01|   -9.057066|  2.5141e-05|    0.036204|
|        3680|  4.6025e+01|  4.6025e+01|   -9.058891|  2.5013e-05|    0.036181|
|        3690|  4.6025e+01|  4.6025e+01|   -9.060707|  2.4886e-05|    0.036157|
|        3700|  4.6025e+01|  4.6025e+01|   -9.062521|  2.4760e-05|    0.036134|
|        3710|  4.6025e+01|  4.6025e+01|   -9.064340|  2.4635e-05|    0.036111|
|        3720|  4.6025e+01|  4.6025e+01|   -9.066173|  2.4511e-05|    0.036088|
|        3730|  4.6025e+01|  4.6025e+01|   -9.067995|  2.4388e-05|    0.036065|
|        3740|  4.6025e+01|  4.6025e+01|   -9.069792|  2.4266e-05|    0.036042|
|        3750|  4.6025e+01|  4.6025e+01|   -9.071591|  2.4144e-05|    0.036019|
|        3760|  4.6025e+01|  4.6025e+01|   -9.073364|  2.4023e-05|    0.035997|
|        3770|  4.6025e+01|  4.6025e+01|   -9.075170|  2.3903e-05|    0.035974|
|        3780|  4.6025e+01|  4.6025e+01|   -9.077004|  2.3784e-05|    0.035952|
|        3790|  4.6025e+01|  4.6025e+01|   -9.078858|  2.3665e-05|    0.035929|
|        3800|  4.6025e+01|  4.6025e+01|   -9.080692|  2.3548e-05|    0.035907|
+-----------------------------------------------------------------------+
|        File Writing Summary       |              Filename             |
+-----------------------------------------------------------------------+
|SU2 binary restart                 |restart_flow_G7.dat                |
|Paraview                           |flow_G7.vtu                        |
|Paraview surface                   |surface_flow_G7.vtu                |
+-----------------------------------------------------------------------+
+-----------------------------------------------------------------------------+
|  Inner_Iter|     Min CFL|     Max CFL|      rms[P]|  Cauchy[CD]|          CD|
+-----------------------------------------------------------------------------+
|        3810|  4.6025e+01|  4.6025e+01|   -9.082507|  2.3431e-05|    0.035885|
|        3820|  4.6025e+01|  4.6025e+01|   -9.084296|  2.3314e-05|    0.035863|
|        3830|  4.6025e+01|  4.6025e+01|   -9.086049|  2.3197e-05|    0.035841|
|        3840|  4.6025e+01|  4.6025e+01|   -9.087787|  2.3081e-05|    0.035820|
|        3850|  4.6025e+01|  4.6025e+01|   -9.089517|  2.2964e-05|    0.035798|
|        3860|  4.6025e+01|  4.6025e+01|   -9.091250|  2.2848e-05|    0.035777|
|        3870|  4.6025e+01|  4.6025e+01|   -9.092988|  2.2733e-05|    0.035755|
|        3880|  4.6025e+01|  4.6025e+01|   -9.094731|  2.2618e-05|    0.035734|
|        3890|  4.6025e+01|  4.6025e+01|   -9.096509|  2.2504e-05|    0.035713|
|        3900|  4.6025e+01|  4.6025e+01|   -9.098314|  2.2390e-05|    0.035692|
|        3910|  4.6025e+01|  4.6025e+01|   -9.100105|  2.2277e-05|    0.035671|
|        3920|  4.6025e+01|  4.6025e+01|   -9.101895|  2.2163e-05|    0.035650|
|        3930|  4.6025e+01|  4.6025e+01|   -9.103653|  2.2050e-05|    0.035630|
|        3940|  4.6025e+01|  4.6025e+01|   -9.105393|  2.1936e-05|    0.035609|
|        3950|  4.6025e+01|  4.6025e+01|   -9.107129|  2.1824e-05|    0.035588|
|        3960|  4.6025e+01|  4.6025e+01|   -9.108861|  2.1711e-05|    0.035568|
|        3970|  4.6025e+01|  4.6025e+01|   -9.110607|  2.1599e-05|    0.035548|
|        3980|  4.6025e+01|  4.6025e+01|   -9.112387|  2.1488e-05|    0.035528|
|        3990|  4.6025e+01|  4.6025e+01|   -9.114191|  2.1378e-05|    0.035508|
|        4000|  4.6025e+01|  4.6025e+01|   -9.116010|  2.1267e-05|    0.035488|
+-----------------------------------------------------------------------+
|        File Writing Summary       |              Filename             |
+-----------------------------------------------------------------------+
|SU2 binary restart                 |restart_flow_G7.dat                |
|Paraview                           |flow_G7.vtu                        |
|Paraview surface                   |surface_flow_G7.vtu                |
+-----------------------------------------------------------------------+
+-----------------------------------------------------------------------------+
|  Inner_Iter|     Min CFL|     Max CFL|      rms[P]|  Cauchy[CD]|          CD|
+-----------------------------------------------------------------------------+
|        4010|  4.6025e+01|  4.6025e+01|   -9.117824|  2.1158e-05|    0.035468|
|        4020|  4.6025e+01|  4.6025e+01|   -9.119641|  2.1048e-05|    0.035448|
|        4030|  4.6025e+01|  4.6025e+01|   -9.121462|  2.0939e-05|    0.035428|
|        4040|  4.6025e+01|  4.6025e+01|   -9.123272|  2.0830e-05|    0.035409|
|        4050|  4.6025e+01|  4.6025e+01|   -9.125093|  2.0722e-05|    0.035389|
|        4060|  4.6025e+01|  4.6025e+01|   -9.126921|  2.0614e-05|    0.035370|
|        4070|  4.6025e+01|  4.6025e+01|   -9.128766|  2.0507e-05|    0.035351|
|        4080|  4.6025e+01|  4.6025e+01|   -9.130629|  2.0401e-05|    0.035331|
|        4090|  4.6025e+01|  4.6025e+01|   -9.132487|  2.0296e-05|    0.035312|
|        4100|  4.6025e+01|  4.6025e+01|   -9.134334|  2.0191e-05|    0.035293|
|        4110|  4.6025e+01|  4.6025e+01|   -9.136156|  2.0087e-05|    0.035275|
|        4120|  4.6025e+01|  4.6025e+01|   -9.137977|  1.9983e-05|    0.035256|
|        4130|  4.6025e+01|  4.6025e+01|   -9.139836|  1.9879e-05|    0.035237|
|        4140|  4.6025e+01|  4.6025e+01|   -9.141720|  1.9776e-05|    0.035219|
|        4150|  4.6025e+01|  4.6025e+01|   -9.143632|  1.9673e-05|    0.035200|
|        4160|  4.6025e+01|  4.6025e+01|   -9.145555|  1.9572e-05|    0.035182|
|        4170|  4.6025e+01|  4.6025e+01|   -9.147482|  1.9471e-05|    0.035163|
|        4180|  4.6025e+01|  4.6025e+01|   -9.149386|  1.9371e-05|    0.035145|
|        4190|  4.6025e+01|  4.6025e+01|   -9.151277|  1.9271e-05|    0.035127|
|        4200|  4.6025e+01|  4.6025e+01|   -9.153135|  1.9172e-05|    0.035109|
+-----------------------------------------------------------------------+
|        File Writing Summary       |              Filename             |
+-----------------------------------------------------------------------+
|SU2 binary restart                 |restart_flow_G7.dat                |
|Paraview                           |flow_G7.vtu                        |
|Paraview surface                   |surface_flow_G7.vtu                |
+-----------------------------------------------------------------------+
+-----------------------------------------------------------------------------+
|  Inner_Iter|     Min CFL|     Max CFL|      rms[P]|  Cauchy[CD]|          CD|
+-----------------------------------------------------------------------------+
|        4210|  4.6025e+01|  4.6025e+01|   -9.154965|  1.9073e-05|    0.035091|
|        4220|  4.6025e+01|  4.6025e+01|   -9.156794|  1.8974e-05|    0.035073|
|        4230|  4.6025e+01|  4.6025e+01|   -9.158655|  1.8876e-05|    0.035056|
|        4240|  4.6025e+01|  4.6025e+01|   -9.160542|  1.8778e-05|    0.035038|
|        4250|  4.6025e+01|  4.6025e+01|   -9.162446|  1.8682e-05|    0.035020|
|        4260|  4.6025e+01|  4.6025e+01|   -9.164369|  1.8586e-05|    0.035003|
|        4270|  4.6025e+01|  4.6025e+01|   -9.166291|  1.8490e-05|    0.034986|
|        4280|  4.6025e+01|  4.6025e+01|   -9.168226|  1.8395e-05|    0.034968|
|        4290|  4.6025e+01|  4.6025e+01|   -9.170135|  1.8300e-05|    0.034951|
|        4300|  4.6025e+01|  4.6025e+01|   -9.172013|  1.8206e-05|    0.034934|
|        4310|  4.6025e+01|  4.6025e+01|   -9.173884|  1.8112e-05|    0.034917|
|        4320|  4.6025e+01|  4.6025e+01|   -9.175744|  1.8018e-05|    0.034900|
|        4330|  4.6025e+01|  4.6025e+01|   -9.177596|  1.7925e-05|    0.034883|
|        4340|  4.6025e+01|  4.6025e+01|   -9.179452|  1.7832e-05|    0.034867|
|        4350|  4.6025e+01|  4.6025e+01|   -9.181326|  1.7740e-05|    0.034850|
|        4360|  4.6025e+01|  4.6025e+01|   -9.183227|  1.7649e-05|    0.034833|
|        4370|  4.6025e+01|  4.6025e+01|   -9.185119|  1.7558e-05|    0.034817|
|        4380|  4.6025e+01|  4.6025e+01|   -9.187033|  1.7467e-05|    0.034800|
|        4390|  4.6025e+01|  4.6025e+01|   -9.188946|  1.7377e-05|    0.034784|
|        4400|  4.6025e+01|  4.6025e+01|   -9.190840|  1.7287e-05|    0.034768|
+-----------------------------------------------------------------------+
|        File Writing Summary       |              Filename             |
+-----------------------------------------------------------------------+
|SU2 binary restart                 |restart_flow_G7.dat                |
|Paraview                           |flow_G7.vtu                        |
|Paraview surface                   |surface_flow_G7.vtu                |
+-----------------------------------------------------------------------+
+-----------------------------------------------------------------------------+
|  Inner_Iter|     Min CFL|     Max CFL|      rms[P]|  Cauchy[CD]|          CD|
+-----------------------------------------------------------------------------+
|        4410|  4.6025e+01|  4.6025e+01|   -9.192753|  1.7197e-05|    0.034752|
|        4420|  4.6025e+01|  4.6025e+01|   -9.194653|  1.7107e-05|    0.034736|
|        4430|  4.6025e+01|  4.6025e+01|   -9.196553|  1.7018e-05|    0.034720|
|        4440|  4.6025e+01|  4.6025e+01|   -9.198454|  1.6929e-05|    0.034704|
|        4450|  4.6025e+01|  4.6025e+01|   -9.200361|  1.6841e-05|    0.034688|
|        4460|  4.6025e+01|  4.6025e+01|   -9.202270|  1.6754e-05|    0.034672|
|        4470|  4.6025e+01|  4.6025e+01|   -9.204195|  1.6668e-05|    0.034657|
|        4480|  4.6025e+01|  4.6025e+01|   -9.206129|  1.6581e-05|    0.034641|
|        4490|  4.6025e+01|  4.6025e+01|   -9.208056|  1.6495e-05|    0.034626|
|        4500|  4.6025e+01|  4.6025e+01|   -9.209985|  1.6409e-05|    0.034610|
|        4510|  4.6025e+01|  4.6025e+01|   -9.211922|  1.6323e-05|    0.034595|
|        4520|  4.6025e+01|  4.6025e+01|   -9.213867|  1.6237e-05|    0.034580|
|        4530|  4.6025e+01|  4.6025e+01|   -9.215807|  1.6152e-05|    0.034565|
|        4540|  4.6025e+01|  4.6025e+01|   -9.217783|  1.6068e-05|    0.034550|
|        4550|  4.6025e+01|  4.6025e+01|   -9.219748|  1.5984e-05|    0.034535|
|        4560|  4.6025e+01|  4.6025e+01|   -9.221717|  1.5900e-05|    0.034520|
|        4570|  4.6025e+01|  4.6025e+01|   -9.223707|  1.5817e-05|    0.034505|
|        4580|  4.6025e+01|  4.6025e+01|   -9.225697|  1.5735e-05|    0.034490|
|        4590|  4.6025e+01|  4.6025e+01|   -9.227684|  1.5653e-05|    0.034475|
|        4600|  4.6025e+01|  4.6025e+01|   -9.229648|  1.5571e-05|    0.034461|
+-----------------------------------------------------------------------+
|        File Writing Summary       |              Filename             |
+-----------------------------------------------------------------------+
|SU2 binary restart                 |restart_flow_G7.dat                |
|Paraview                           |flow_G7.vtu                        |
|Paraview surface                   |surface_flow_G7.vtu                |
+-----------------------------------------------------------------------+
+-----------------------------------------------------------------------------+
|  Inner_Iter|     Min CFL|     Max CFL|      rms[P]|  Cauchy[CD]|          CD|
+-----------------------------------------------------------------------------+
|        4610|  4.6025e+01|  4.6025e+01|   -9.231602|  1.5490e-05|    0.034446|
|        4620|  4.6025e+01|  4.6025e+01|   -9.233534|  1.5409e-05|    0.034432|
|        4630|  4.6025e+01|  4.6025e+01|   -9.235479|  1.5328e-05|    0.034417|
|        4640|  4.6025e+01|  4.6025e+01|   -9.237439|  1.5248e-05|    0.034403|
|        4650|  4.6025e+01|  4.6025e+01|   -9.239407|  1.5168e-05|    0.034389|
|        4660|  4.6025e+01|  4.6025e+01|   -9.241407|  1.5089e-05|    0.034375|
|        4670|  4.6025e+01|  4.6025e+01|   -9.243424|  1.5010e-05|    0.034361|
|        4680|  4.6025e+01|  4.6025e+01|   -9.245460|  1.4931e-05|    0.034347|
|        4690|  4.6025e+01|  4.6025e+01|   -9.247493|  1.4853e-05|    0.034333|
|        4700|  4.6025e+01|  4.6025e+01|   -9.249515|  1.4775e-05|    0.034319|
|        4710|  4.6025e+01|  4.6025e+01|   -9.251515|  1.4698e-05|    0.034305|
|        4720|  4.6025e+01|  4.6025e+01|   -9.253488|  1.4621e-05|    0.034291|
|        4730|  4.6025e+01|  4.6025e+01|   -9.255436|  1.4544e-05|    0.034278|
|        4740|  4.6025e+01|  4.6025e+01|   -9.257407|  1.4468e-05|    0.034264|
|        4750|  4.6025e+01|  4.6025e+01|   -9.259400|  1.4392e-05|    0.034250|
|        4760|  4.6025e+01|  4.6025e+01|   -9.261411|  1.4317e-05|    0.034237|
|        4770|  4.6025e+01|  4.6025e+01|   -9.263430|  1.4242e-05|    0.034224|
|        4780|  4.6025e+01|  4.6025e+01|   -9.265465|  1.4167e-05|    0.034210|
|        4790|  4.6025e+01|  4.6025e+01|   -9.267501|  1.4093e-05|    0.034197|
|        4800|  4.6025e+01|  4.6025e+01|   -9.269532|  1.4019e-05|    0.034184|
+-----------------------------------------------------------------------+
|        File Writing Summary       |              Filename             |
+-----------------------------------------------------------------------+
|SU2 binary restart                 |restart_flow_G7.dat                |
|Paraview                           |flow_G7.vtu                        |
|Paraview surface                   |surface_flow_G7.vtu                |
+-----------------------------------------------------------------------+
+-----------------------------------------------------------------------------+
|  Inner_Iter|     Min CFL|     Max CFL|      rms[P]|  Cauchy[CD]|          CD|
+-----------------------------------------------------------------------------+
|        4810|  4.6025e+01|  4.6025e+01|   -9.271555|  1.3946e-05|    0.034171|
|        4820|  4.6025e+01|  4.6025e+01|   -9.273577|  1.3872e-05|    0.034158|
|        4830|  4.6025e+01|  4.6025e+01|   -9.275594|  1.3799e-05|    0.034145|
|        4840|  4.6025e+01|  4.6025e+01|   -9.277607|  1.3726e-05|    0.034132|
|        4850|  4.6025e+01|  4.6025e+01|   -9.279614|  1.3654e-05|    0.034119|
|        4860|  4.6025e+01|  4.6025e+01|   -9.281638|  1.3582e-05|    0.034107|
|        4870|  4.6025e+01|  4.6025e+01|   -9.283665|  1.3510e-05|    0.034094|
|        4880|  4.6025e+01|  4.6025e+01|   -9.285690|  1.3439e-05|    0.034081|
|        4890|  4.6025e+01|  4.6025e+01|   -9.287718|  1.3368e-05|    0.034069|
|        4900|  4.6025e+01|  4.6025e+01|   -9.289749|  1.3298e-05|    0.034056|
|        4910|  4.6025e+01|  4.6025e+01|   -9.291778|  1.3228e-05|    0.034044|
|        4920|  4.6025e+01|  4.6025e+01|   -9.293803|  1.3159e-05|    0.034032|
|        4930|  4.6025e+01|  4.6025e+01|   -9.295849|  1.3090e-05|    0.034019|
|        4940|  4.6025e+01|  4.6025e+01|   -9.297904|  1.3021e-05|    0.034007|
|        4950|  4.6025e+01|  4.6025e+01|   -9.299963|  1.2952e-05|    0.033995|
|        4960|  4.6025e+01|  4.6025e+01|   -9.301998|  1.2884e-05|    0.033983|
|        4970|  4.6025e+01|  4.6025e+01|   -9.304055|  1.2816e-05|    0.033971|
|        4980|  4.6025e+01|  4.6025e+01|   -9.306118|  1.2748e-05|    0.033959|
|        4990|  4.6025e+01|  4.6025e+01|   -9.308179|  1.2680e-05|    0.033947|
|        5000|  4.6025e+01|  4.6025e+01|   -9.310237|  1.2613e-05|    0.033935|
+-----------------------------------------------------------------------+
|        File Writing Summary       |              Filename             |
+-----------------------------------------------------------------------+
|SU2 binary restart                 |restart_flow_G7.dat                |
|Paraview                           |flow_G7.vtu                        |
|Paraview surface                   |surface_flow_G7.vtu                |
+-----------------------------------------------------------------------+
+-----------------------------------------------------------------------------+
|  Inner_Iter|     Min CFL|     Max CFL|      rms[P]|  Cauchy[CD]|          CD|
+-----------------------------------------------------------------------------+
|        5010|  4.6025e+01|  4.6025e+01|   -9.312287|  1.2546e-05|    0.033923|
|        5020|  4.6025e+01|  4.6025e+01|   -9.314344|  1.2480e-05|    0.033912|
|        5030|  4.6025e+01|  4.6025e+01|   -9.316414|  1.2414e-05|    0.033900|
|        5040|  4.6025e+01|  4.6025e+01|   -9.318498|  1.2348e-05|    0.033888|
|        5050|  4.6025e+01|  4.6025e+01|   -9.320580|  1.2283e-05|    0.033877|
|        5060|  4.6025e+01|  4.6025e+01|   -9.322662|  1.2218e-05|    0.033866|
|        5070|  4.6025e+01|  4.6025e+01|   -9.324756|  1.2153e-05|    0.033854|
|        5080|  4.6025e+01|  4.6025e+01|   -9.326816|  1.2089e-05|    0.033843|
|        5090|  4.6025e+01|  4.6025e+01|   -9.328889|  1.2025e-05|    0.033831|
|        5100|  4.6025e+01|  4.6025e+01|   -9.330955|  1.1961e-05|    0.033820|
|        5110|  4.6025e+01|  4.6025e+01|   -9.333031|  1.1898e-05|    0.033809|
|        5120|  4.6025e+01|  4.6025e+01|   -9.335120|  1.1834e-05|    0.033798|
|        5130|  4.6025e+01|  4.6025e+01|   -9.337214|  1.1771e-05|    0.033787|
|        5140|  4.6025e+01|  4.6025e+01|   -9.339326|  1.1709e-05|    0.033776|
|        5150|  4.6025e+01|  4.6025e+01|   -9.341444|  1.1646e-05|    0.033765|
|        5160|  4.6025e+01|  4.6025e+01|   -9.343577|  1.1584e-05|    0.033754|
|        5170|  4.6025e+01|  4.6025e+01|   -9.345710|  1.1522e-05|    0.033743|
|        5180|  4.6025e+01|  4.6025e+01|   -9.347849|  1.1461e-05|    0.033733|
|        5190|  4.6025e+01|  4.6025e+01|   -9.349986|  1.1400e-05|    0.033722|
|        5200|  4.6025e+01|  4.6025e+01|   -9.352092|  1.1339e-05|    0.033711|
+-----------------------------------------------------------------------+
|        File Writing Summary       |              Filename             |
+-----------------------------------------------------------------------+
|SU2 binary restart                 |restart_flow_G7.dat                |
|Paraview                           |flow_G7.vtu                        |
|Paraview surface                   |surface_flow_G7.vtu                |
+-----------------------------------------------------------------------+
+-----------------------------------------------------------------------------+
|  Inner_Iter|     Min CFL|     Max CFL|      rms[P]|  Cauchy[CD]|          CD|
+-----------------------------------------------------------------------------+
|        5210|  4.6025e+01|  4.6025e+01|   -9.354179|  1.1279e-05|    0.033701|
|        5220|  4.6025e+01|  4.6025e+01|   -9.356243|  1.1219e-05|    0.033690|
|        5230|  4.6025e+01|  4.6025e+01|   -9.358304|  1.1159e-05|    0.033680|
|        5240|  4.6025e+01|  4.6025e+01|   -9.360380|  1.1100e-05|    0.033669|
|        5250|  4.6025e+01|  4.6025e+01|   -9.362466|  1.1041e-05|    0.033659|
|        5260|  4.6025e+01|  4.6025e+01|   -9.364580|  1.0982e-05|    0.033649|
|        5270|  4.6025e+01|  4.6025e+01|   -9.366721|  1.0924e-05|    0.033639|
|        5280|  4.6025e+01|  4.6025e+01|   -9.368870|  1.0865e-05|    0.033628|
|        5290|  4.6025e+01|  4.6025e+01|   -9.371041|  1.0807e-05|    0.033618|
|        5300|  4.6025e+01|  4.6025e+01|   -9.373207|  1.0749e-05|    0.033608|
|        5310|  4.6025e+01|  4.6025e+01|   -9.375369|  1.0691e-05|    0.033598|
|        5320|  4.6025e+01|  4.6025e+01|   -9.377517|  1.0634e-05|    0.033588|
|        5330|  4.6025e+01|  4.6025e+01|   -9.379649|  1.0577e-05|    0.033578|
|        5340|  4.6025e+01|  4.6025e+01|   -9.381773|  1.0520e-05|    0.033568|
|        5350|  4.6025e+01|  4.6025e+01|   -9.383880|  1.0464e-05|    0.033559|
|        5360|  4.6025e+01|  4.6025e+01|   -9.385991|  1.0408e-05|    0.033549|
|        5370|  4.6025e+01|  4.6025e+01|   -9.388109|  1.0353e-05|    0.033539|
|        5380|  4.6025e+01|  4.6025e+01|   -9.390222|  1.0298e-05|    0.033530|
|        5390|  4.6025e+01|  4.6025e+01|   -9.392339|  1.0243e-05|    0.033520|
|        5400|  4.6025e+01|  4.6025e+01|   -9.394466|  1.0188e-05|    0.033510|
+-----------------------------------------------------------------------+
|        File Writing Summary       |              Filename             |
+-----------------------------------------------------------------------+
|SU2 binary restart                 |restart_flow_G7.dat                |
|Paraview                           |flow_G7.vtu                        |
|Paraview surface                   |surface_flow_G7.vtu                |
+-----------------------------------------------------------------------+
+-----------------------------------------------------------------------------+
|  Inner_Iter|     Min CFL|     Max CFL|      rms[P]|  Cauchy[CD]|          CD|
+-----------------------------------------------------------------------------+
|        5410|  4.6025e+01|  4.6025e+01|   -9.396607|  1.0134e-05|    0.033501|
|        5420|  4.6025e+01|  4.6025e+01|   -9.398776|  1.0079e-05|    0.033492|
|        5430|  4.6025e+01|  4.6025e+01|   -9.400964|  1.0025e-05|    0.033482|
|        5440|  4.6025e+01|  4.6025e+01|   -9.403166|  9.9714e-06|    0.033473|
|        5450|  4.6025e+01|  4.6025e+01|   -9.405371|  9.9178e-06|    0.033463|
|        5460|  4.6025e+01|  4.6025e+01|   -9.407552|  9.8645e-06|    0.033454|
|        5470|  4.6025e+01|  4.6025e+01|   -9.409700|  9.8115e-06|    0.033445|
|        5480|  9.5438e+00|  9.5438e+00|   -9.397042|  9.6723e-06|    0.033438|
|        5490|  4.9244e+00|  4.9244e+00|   -9.417135|  9.4578e-06|    0.033433|
|        5500|  3.0491e+01|  3.0491e+01|   -9.424662|  9.1488e-06|    0.033430|
|        5510|  1.5732e+01|  1.5732e+01|   -9.425327|  8.9065e-06|    0.033426|
|        5520|  4.6977e+01|  4.6977e+01|   -9.417405|  8.7639e-06|    0.033420|
|        5530|  4.6977e+01|  4.6977e+01|   -9.418657|  8.7180e-06|    0.033410|
|        5540|  4.6977e+01|  4.6977e+01|   -9.420679|  8.6790e-06|    0.033401|
|        5550|  4.6977e+01|  4.6977e+01|   -9.422241|  8.6392e-06|    0.033392|
|        5560|  4.6977e+01|  4.6977e+01|   -9.424207|  8.6010e-06|    0.033383|
|        5570|  4.6977e+01|  4.6977e+01|   -9.426490|  8.5655e-06|    0.033374|
|        5580|  4.6977e+01|  4.6977e+01|   -9.428593|  8.5297e-06|    0.033365|
|        5590|  4.6977e+01|  4.6977e+01|   -9.430661|  8.4916e-06|    0.033356|
|        5600|  4.6977e+01|  4.6977e+01|   -9.432881|  8.4510e-06|    0.033347|
+-----------------------------------------------------------------------+
|        File Writing Summary       |              Filename             |
+-----------------------------------------------------------------------+
|SU2 binary restart                 |restart_flow_G7.dat                |
|Paraview                           |flow_G7.vtu                        |
|Paraview surface                   |surface_flow_G7.vtu                |
+-----------------------------------------------------------------------+
+-----------------------------------------------------------------------------+
|  Inner_Iter|     Min CFL|     Max CFL|      rms[P]|  Cauchy[CD]|          CD|
+-----------------------------------------------------------------------------+
|        5610|  4.6977e+01|  4.6977e+01|   -9.435124|  8.4096e-06|    0.033339|
|        5620|  4.6977e+01|  4.6977e+01|   -9.437309|  8.3699e-06|    0.033330|
|        5630|  4.6977e+01|  4.6977e+01|   -9.439509|  8.3325e-06|    0.033321|
|        5640|  4.6977e+01|  4.6977e+01|   -9.441731|  8.2954e-06|    0.033313|
|        5650|  4.6977e+01|  4.6977e+01|   -9.444009|  8.2579e-06|    0.033304|
|        5660|  4.6977e+01|  4.6977e+01|   -9.446304|  8.2212e-06|    0.033295|
|        5670|  4.6977e+01|  4.6977e+01|   -9.448560|  8.1848e-06|    0.033287|
|        5680|  4.6977e+01|  4.6977e+01|   -9.450791|  8.1474e-06|    0.033278|
|        5690|  4.6977e+01|  4.6977e+01|   -9.453022|  8.1094e-06|    0.033270|
|        5700|  4.6977e+01|  4.6977e+01|   -9.455280|  8.0718e-06|    0.033262|
|        5710|  4.6977e+01|  4.6977e+01|   -9.457536|  8.0354e-06|    0.033253|
|        5720|  4.6977e+01|  4.6977e+01|   -9.459797|  7.9994e-06|    0.033245|
|        5730|  4.6977e+01|  4.6977e+01|   -9.462060|  8.0493e-06|    0.033237|
[...]
|        7980|  4.6977e+01|  4.6977e+01|  -10.008597|  2.4394e-06|    0.032191|
|        7990|  4.6977e+01|  4.6977e+01|  -10.011119|  2.4250e-06|    0.032189|
|        8000|  4.6977e+01|  4.6977e+01|  -10.013645|  2.4107e-06|    0.032187|
+-----------------------------------------------------------------------+
|        File Writing Summary       |              Filename             |
+-----------------------------------------------------------------------+
|SU2 binary restart                 |restart_flow_G7.dat                |
|Paraview                           |flow_G7.vtu                        |
|Paraview surface                   |surface_flow_G7.vtu                |
+-----------------------------------------------------------------------+
+-----------------------------------------------------------------------------+
|  Inner_Iter|     Min CFL|     Max CFL|      rms[P]|  Cauchy[CD]|          CD|
+-----------------------------------------------------------------------------+
|        8010|  4.6977e+01|  4.6977e+01|  -10.016173|  2.3966e-06|    0.032185|
|        8020|  4.6977e+01|  4.6977e+01|  -10.018702|  2.3825e-06|    0.032182|
|        8030|  4.6977e+01|  4.6977e+01|  -10.021233|  2.3685e-06|    0.032180|
|        8040|  4.6977e+01|  4.6977e+01|  -10.023768|  2.3546e-06|    0.032178|
|        8050|  4.6977e+01|  4.6977e+01|  -10.026304|  2.3408e-06|    0.032176|
|        8060|  4.6977e+01|  4.6977e+01|  -10.028838|  2.3270e-06|    0.032174|
|        8070|  4.6977e+01|  4.6977e+01|  -10.031367|  2.3134e-06|    0.032171|
|        8080|  4.6977e+01|  4.6977e+01|  -10.033900|  2.2999e-06|    0.032169|
|        8090|  4.6977e+01|  4.6977e+01|  -10.036433|  2.2864e-06|    0.032167|
|        8100|  4.6977e+01|  4.6977e+01|  -10.038966|  2.2730e-06|    0.032165|
|        8110|  4.6977e+01|  4.6977e+01|  -10.041504|  2.2598e-06|    0.032163|
|        8120|  4.6977e+01|  4.6977e+01|  -10.044039|  2.2466e-06|    0.032161|
|        8130|  4.6977e+01|  4.6977e+01|  -10.046575|  2.2335e-06|    0.032159|
|        8140|  4.6977e+01|  4.6977e+01|  -10.049113|  2.2205e-06|    0.032157|
|        8150|  4.6977e+01|  4.6977e+01|  -10.051655|  2.2076e-06|    0.032155|
|        8160|  4.6977e+01|  4.6977e+01|  -10.054199|  2.1948e-06|    0.032153|
|        8170|  4.6977e+01|  4.6977e+01|  -10.056746|  2.1821e-06|    0.032151|
|        8180|  4.6977e+01|  4.6977e+01|  -10.059295|  2.1695e-06|    0.032149|
|        8190|  4.6977e+01|  4.6977e+01|  -10.061846|  2.1569e-06|    0.032147|
|        8200|  4.6977e+01|  4.6977e+01|  -10.064403|  2.1445e-06|    0.032145|
+-----------------------------------------------------------------------+
|        File Writing Summary       |              Filename             |
+-----------------------------------------------------------------------+
|SU2 binary restart                 |restart_flow_G7.dat                |
|Paraview                           |flow_G7.vtu                        |
|Paraview surface                   |surface_flow_G7.vtu                |
+-----------------------------------------------------------------------+
+-----------------------------------------------------------------------------+
|  Inner_Iter|     Min CFL|     Max CFL|      rms[P]|  Cauchy[CD]|          CD|
+-----------------------------------------------------------------------------+
|        8210|  4.6977e+01|  4.6977e+01|  -10.066959|  2.1321e-06|    0.032143|
|        8220|  4.6977e+01|  4.6977e+01|  -10.069519|  2.1198e-06|    0.032141|
|        8230|  4.6977e+01|  4.6977e+01|  -10.072083|  2.1076e-06|    0.032139|
|        8240|  4.6977e+01|  4.6977e+01|  -10.074649|  2.0955e-06|    0.032137|
|        8250|  4.6977e+01|  4.6977e+01|  -10.077215|  2.0835e-06|    0.032135|
|        8260|  4.6977e+01|  4.6977e+01|  -10.079781|  2.0715e-06|    0.032133|
|        8270|  4.6977e+01|  4.6977e+01|  -10.082342|  2.0595e-06|    0.032131|
|        8280|  4.6977e+01|  4.6977e+01|  -10.084903|  2.0476e-06|    0.032129|
|        8290|  4.6977e+01|  4.6977e+01|  -10.087465|  2.0358e-06|    0.032127|
|        8300|  4.6977e+01|  4.6977e+01|  -10.090029|  2.0241e-06|    0.032125|
|        8310|  4.6977e+01|  4.6977e+01|  -10.092595|  2.0124e-06|    0.032123|
|        8320|  4.6977e+01|  4.6977e+01|  -10.095171|  2.0008e-06|    0.032121|
|        8330|  4.6977e+01|  4.6977e+01|  -10.097742|  1.9892e-06|    0.032120|
|        8340|  4.6977e+01|  4.6977e+01|  -10.100321|  1.9777e-06|    0.032118|
|        8350|  4.6977e+01|  4.6977e+01|  -10.102899|  1.9662e-06|    0.032116|
|        8360|  4.6977e+01|  4.6977e+01|  -10.105482|  1.9548e-06|    0.032114|
|        8370|  4.6977e+01|  4.6977e+01|  -10.108060|  1.9435e-06|    0.032112|
|        8380|  4.6977e+01|  4.6977e+01|  -10.110632|  1.9322e-06|    0.032110|
|        8390|  4.6977e+01|  4.6977e+01|  -10.113204|  1.9210e-06|    0.032109|
|        8400|  4.6977e+01|  4.6977e+01|  -10.115780|  1.9098e-06|    0.032107|
+-----------------------------------------------------------------------+
|        File Writing Summary       |              Filename             |
+-----------------------------------------------------------------------+
|SU2 binary restart                 |restart_flow_G7.dat                |
|Paraview                           |flow_G7.vtu                        |
|Paraview surface                   |surface_flow_G7.vtu                |
+-----------------------------------------------------------------------+
+-----------------------------------------------------------------------------+
|  Inner_Iter|     Min CFL|     Max CFL|      rms[P]|  Cauchy[CD]|          CD|
+-----------------------------------------------------------------------------+
|        8410|  4.6977e+01|  4.6977e+01|  -10.118356|  1.8987e-06|    0.032105|
|        8420|  4.6977e+01|  4.6977e+01|  -10.120943|  1.8876e-06|    0.032103|
|        8430|  4.6977e+01|  4.6977e+01|  -10.123523|  1.8766e-06|    0.032102|
|        8440|  4.6977e+01|  4.6977e+01|  -10.126109|  1.8657e-06|    0.032100|
|        8450|  4.6977e+01|  4.6977e+01|  -10.128686|  1.8548e-06|    0.032098|
|        8460|  4.6977e+01|  4.6977e+01|  -10.131262|  1.8440e-06|    0.032096|
|        8470|  4.6977e+01|  4.6977e+01|  -10.133839|  1.8332e-06|    0.032095|
|        8480|  4.6977e+01|  4.6977e+01|  -10.136416|  1.8224e-06|    0.032093|
|        8490|  4.6977e+01|  4.6977e+01|  -10.138997|  1.8118e-06|    0.032091|
|        8500|  4.6977e+01|  4.6977e+01|  -10.141583|  1.8011e-06|    0.032090|
|        8510|  4.6977e+01|  4.6977e+01|  -10.144171|  1.7906e-06|    0.032088|
|        8520|  4.6977e+01|  4.6977e+01|  -10.146760|  1.7801e-06|    0.032086|
|        8530|  4.6977e+01|  4.6977e+01|  -10.149350|  1.7696e-06|    0.032085|
|        8540|  4.6977e+01|  4.6977e+01|  -10.151937|  1.7592e-06|    0.032083|
|        8550|  4.6977e+01|  4.6977e+01|  -10.154518|  1.7489e-06|    0.032081|
|        8560|  4.6977e+01|  4.6977e+01|  -10.157102|  1.7386e-06|    0.032080|
|        8570|  4.6977e+01|  4.6977e+01|  -10.159686|  1.7284e-06|    0.032078|
|        8580|  4.6977e+01|  4.6977e+01|  -10.162282|  1.7182e-06|    0.032077|
|        8590|  4.6977e+01|  4.6977e+01|  -10.164874|  1.7081e-06|    0.032075|
|        8600|  4.6977e+01|  4.6977e+01|  -10.167470|  1.6981e-06|    0.032073|
+-----------------------------------------------------------------------+
|        File Writing Summary       |              Filename             |
+-----------------------------------------------------------------------+
|SU2 binary restart                 |restart_flow_G7.dat                |
|Paraview                           |flow_G7.vtu                        |
|Paraview surface                   |surface_flow_G7.vtu                |
+-----------------------------------------------------------------------+
+-----------------------------------------------------------------------------+
|  Inner_Iter|     Min CFL|     Max CFL|      rms[P]|  Cauchy[CD]|          CD|
+-----------------------------------------------------------------------------+
|        8610|  4.6977e+01|  4.6977e+01|  -10.170061|  1.6881e-06|    0.032072|
|        8620|  4.6977e+01|  4.6977e+01|  -10.172651|  1.6781e-06|    0.032070|
|        8630|  4.6977e+01|  4.6977e+01|  -10.175239|  1.6682e-06|    0.032069|
|        8640|  4.6977e+01|  4.6977e+01|  -10.177828|  1.6584e-06|    0.032067|
|        8650|  4.6977e+01|  4.6977e+01|  -10.180418|  1.6486e-06|    0.032066|
|        8660|  4.6977e+01|  4.6977e+01|  -10.183011|  1.6389e-06|    0.032064|
|        8670|  4.6977e+01|  4.6977e+01|  -10.185604|  1.6292e-06|    0.032063|
|        8680|  4.6977e+01|  4.6977e+01|  -10.188197|  1.6195e-06|    0.032061|
|        8690|  4.6977e+01|  4.6977e+01|  -10.190789|  1.6099e-06|    0.032060|
|        8700|  4.6977e+01|  4.6977e+01|  -10.193378|  1.6004e-06|    0.032058|
|        8710|  4.6977e+01|  4.6977e+01|  -10.195967|  1.5909e-06|    0.032057|
|        8720|  4.6977e+01|  4.6977e+01|  -10.198555|  1.5814e-06|    0.032055|
|        8730|  4.6977e+01|  4.6977e+01|  -10.201142|  1.5721e-06|    0.032054|
|        8740|  4.6977e+01|  4.6977e+01|  -10.203733|  1.5627e-06|    0.032052|
|        8750|  4.6977e+01|  4.6977e+01|  -10.206322|  1.5534e-06|    0.032051|
|        8760|  4.6977e+01|  4.6977e+01|  -10.208912|  1.5442e-06|    0.032049|
|        8770|  4.6977e+01|  4.6977e+01|  -10.211500|  1.5350e-06|    0.032048|
|        8780|  4.6977e+01|  4.6977e+01|  -10.214088|  1.5258e-06|    0.032047|
|        8790|  4.6977e+01|  4.6977e+01|  -10.216677|  1.5167e-06|    0.032045|
|        8800|  4.6977e+01|  4.6977e+01|  -10.219262|  1.5076e-06|    0.032044|
+-----------------------------------------------------------------------+
|        File Writing Summary       |              Filename             |
+-----------------------------------------------------------------------+
|SU2 binary restart                 |restart_flow_G7.dat                |
|Paraview                           |flow_G7.vtu                        |
|Paraview surface                   |surface_flow_G7.vtu                |
+-----------------------------------------------------------------------+
+-----------------------------------------------------------------------------+
|  Inner_Iter|     Min CFL|     Max CFL|      rms[P]|  Cauchy[CD]|          CD|
+-----------------------------------------------------------------------------+
|        8810|  4.6977e+01|  4.6977e+01|  -10.221850|  1.4986e-06|    0.032042|
|        8820|  4.6977e+01|  4.6977e+01|  -10.224438|  1.4897e-06|    0.032041|
|        8830|  4.6977e+01|  4.6977e+01|  -10.227024|  1.4807e-06|    0.032040|
|        8840|  4.6977e+01|  4.6977e+01|  -10.229606|  1.4719e-06|    0.032038|
|        8850|  4.6977e+01|  4.6977e+01|  -10.232193|  1.4631e-06|    0.032037|
|        8860|  4.6977e+01|  4.6977e+01|  -10.234779|  1.4543e-06|    0.032036|
|        8870|  4.6977e+01|  4.6977e+01|  -10.237362|  1.4456e-06|    0.032034|
|        8880|  4.6977e+01|  4.6977e+01|  -10.239940|  1.4369e-06|    0.032033|
|        8890|  4.6977e+01|  4.6977e+01|  -10.242521|  1.4283e-06|    0.032032|
|        8900|  4.6977e+01|  4.6977e+01|  -10.245106|  1.4197e-06|    0.032030|
|        8910|  4.6977e+01|  4.6977e+01|  -10.247701|  1.4111e-06|    0.032029|
|        8920|  4.6977e+01|  4.6977e+01|  -10.250314|  1.4027e-06|    0.032028|
|        8930|  4.6977e+01|  4.6977e+01|  -10.252914|  1.3942e-06|    0.032026|
|        8940|  4.6977e+01|  4.6977e+01|  -10.255509|  1.3859e-06|    0.032025|
|        8950|  4.6977e+01|  4.6977e+01|  -10.258097|  1.3775e-06|    0.032024|
|        8960|  4.6977e+01|  4.6977e+01|  -10.260678|  1.3692e-06|    0.032022|
|        8970|  4.6977e+01|  4.6977e+01|  -10.263255|  1.3610e-06|    0.032021|
|        8980|  4.6977e+01|  4.6977e+01|  -10.265837|  1.3528e-06|    0.032020|
|        8990|  4.6977e+01|  4.6977e+01|  -10.268422|  1.3446e-06|    0.032019|
|        9000|  4.6977e+01|  4.6977e+01|  -10.271010|  1.3365e-06|    0.032017|
+-----------------------------------------------------------------------+
|        File Writing Summary       |              Filename             |
+-----------------------------------------------------------------------+
|SU2 binary restart                 |restart_flow_G7.dat                |
|Paraview                           |flow_G7.vtu                        |
|Paraview surface                   |surface_flow_G7.vtu                |
+-----------------------------------------------------------------------+
+-----------------------------------------------------------------------------+
|  Inner_Iter|     Min CFL|     Max CFL|      rms[P]|  Cauchy[CD]|          CD|
+-----------------------------------------------------------------------------+
|        9010|  4.6977e+01|  4.6977e+01|  -10.273599|  1.3285e-06|    0.032016|
|        9020|  4.6977e+01|  4.6977e+01|  -10.276190|  1.3205e-06|    0.032015|
|        9030|  4.6977e+01|  4.6977e+01|  -10.278777|  1.3126e-06|    0.032014|
|        9040|  4.6977e+01|  4.6977e+01|  -10.281361|  1.3047e-06|    0.032013|
|        9050|  4.6977e+01|  4.6977e+01|  -10.283942|  1.2969e-06|    0.032011|
|        9060|  4.6977e+01|  4.6977e+01|  -10.286521|  1.2891e-06|    0.032010|
|        9070|  4.6977e+01|  4.6977e+01|  -10.289101|  1.2814e-06|    0.032009|
|        9080|  4.6977e+01|  4.6977e+01|  -10.291678|  1.2737e-06|    0.032008|
|        9090|  4.6977e+01|  4.6977e+01|  -10.294247|  1.2661e-06|    0.032007|
|        9100|  4.6977e+01|  4.6977e+01|  -10.296821|  1.2585e-06|    0.032005|
|        9110|  4.6977e+01|  4.6977e+01|  -10.299394|  1.2510e-06|    0.032004|
|        9120|  4.6977e+01|  4.6977e+01|  -10.301971|  1.2435e-06|    0.032003|
|        9130|  4.6977e+01|  4.6977e+01|  -10.304553|  1.2361e-06|    0.032002|
|        9140|  4.6977e+01|  4.6977e+01|  -10.307137|  1.2287e-06|    0.032001|
|        9150|  4.6977e+01|  4.6977e+01|  -10.309725|  1.2214e-06|    0.032000|
|        9160|  4.6977e+01|  4.6977e+01|  -10.312308|  1.2141e-06|    0.031999|
|        9170|  4.6977e+01|  4.6977e+01|  -10.314889|  1.2069e-06|    0.031997|
|        9180|  4.6977e+01|  4.6977e+01|  -10.317468|  1.1997e-06|    0.031996|
|        9190|  4.6977e+01|  4.6977e+01|  -10.320047|  1.1926e-06|    0.031995|
|        9200|  4.6977e+01|  4.6977e+01|  -10.322629|  1.1855e-06|    0.031994|
+-----------------------------------------------------------------------+
|        File Writing Summary       |              Filename             |
+-----------------------------------------------------------------------+
|SU2 binary restart                 |restart_flow_G7.dat                |
|Paraview                           |flow_G7.vtu                        |
|Paraview surface                   |surface_flow_G7.vtu                |
+-----------------------------------------------------------------------+
+-----------------------------------------------------------------------------+
|  Inner_Iter|     Min CFL|     Max CFL|      rms[P]|  Cauchy[CD]|          CD|
+-----------------------------------------------------------------------------+
|        9210|  4.6977e+01|  4.6977e+01|  -10.325214|  1.1785e-06|    0.031993|
|        9220|  4.6977e+01|  4.6977e+01|  -10.327801|  1.1715e-06|    0.031992|
|        9230|  4.6977e+01|  4.6977e+01|  -10.330389|  1.1645e-06|    0.031991|
|        9240|  4.6977e+01|  4.6977e+01|  -10.332976|  1.1576e-06|    0.031990|
|        9250|  4.6977e+01|  4.6977e+01|  -10.335562|  1.1507e-06|    0.031989|
|        9260|  4.6977e+01|  4.6977e+01|  -10.338147|  1.1438e-06|    0.031988|
|        9270|  4.6977e+01|  4.6977e+01|  -10.340729|  1.1370e-06|    0.031987|
|        9280|  4.6977e+01|  4.6977e+01|  -10.343312|  1.1303e-06|    0.031986|
|        9290|  4.6977e+01|  4.6977e+01|  -10.345896|  1.1235e-06|    0.031984|
|        9300|  4.6977e+01|  4.6977e+01|  -10.348483|  1.1169e-06|    0.031983|
|        9310|  4.6977e+01|  4.6977e+01|  -10.351078|  1.1102e-06|    0.031982|
|        9320|  4.6977e+01|  4.6977e+01|  -10.353671|  1.1036e-06|    0.031981|
|        9330|  4.6977e+01|  4.6977e+01|  -10.356264|  1.0971e-06|    0.031980|
|        9340|  4.6977e+01|  4.6977e+01|  -10.358857|  1.0906e-06|    0.031979|
|        9350|  4.6977e+01|  4.6977e+01|  -10.361447|  1.0841e-06|    0.031978|
|        9360|  4.6977e+01|  4.6977e+01|  -10.364037|  1.0776e-06|    0.031977|
|        9370|  4.6977e+01|  4.6977e+01|  -10.366628|  1.0713e-06|    0.031976|
|        9380|  4.6977e+01|  4.6977e+01|  -10.369218|  1.0649e-06|    0.031975|
|        9390|  4.6977e+01|  4.6977e+01|  -10.371807|  1.0586e-06|    0.031974|
|        9400|  4.6977e+01|  4.6977e+01|  -10.374396|  1.0523e-06|    0.031973|
+-----------------------------------------------------------------------+
|        File Writing Summary       |              Filename             |
+-----------------------------------------------------------------------+
|SU2 binary restart                 |restart_flow_G7.dat                |
|Paraview                           |flow_G7.vtu                        |
|Paraview surface                   |surface_flow_G7.vtu                |
+-----------------------------------------------------------------------+
+-----------------------------------------------------------------------------+
|  Inner_Iter|     Min CFL|     Max CFL|      rms[P]|  Cauchy[CD]|          CD|
+-----------------------------------------------------------------------------+
|        9410|  4.6977e+01|  4.6977e+01|  -10.376984|  1.0460e-06|    0.031972|
|        9420|  4.6977e+01|  4.6977e+01|  -10.379575|  1.0398e-06|    0.031971|
|        9430|  4.6977e+01|  4.6977e+01|  -10.382169|  1.0336e-06|    0.031970|
|        9440|  4.6977e+01|  4.6977e+01|  -10.384762|  1.0275e-06|    0.031970|
|        9450|  4.6977e+01|  4.6977e+01|  -10.387356|  1.0214e-06|    0.031969|
|        9460|  4.6977e+01|  4.6977e+01|  -10.389953|  1.0153e-06|    0.031968|
|        9470|  4.6977e+01|  4.6977e+01|  -10.392545|  1.0093e-06|    0.031967|
|        9480|  4.6977e+01|  4.6977e+01|  -10.395140|  1.0033e-06|    0.031966|
|        9486|  4.6977e+01|  4.6977e+01|  -10.396698|  9.9967e-07|    0.031965|

----------------------------- Solver Exit -------------------------------
All convergence criteria satisfied.
+-----------------------------------------------------------------------+
|      Convergence Field     |     Value    |   Criterion  |  Converged |
+-----------------------------------------------------------------------+
|                      rms[P]|      -10.3967|          < -9|         Yes|
|                  Cauchy[CD]|   9.99672e-07|       < 1e-06|         Yes|
+-----------------------------------------------------------------------+
-------------------------------------------------------------------------
+-----------------------------------------------------------------------+
|        File Writing Summary       |              Filename             |
+-----------------------------------------------------------------------+
|SU2 binary restart                 |restart_flow_G7.dat                |
|Paraview                           |flow_G7.vtu                        |
|Paraview surface                   |surface_flow_G7.vtu                |
+-----------------------------------------------------------------------+

------------------------- Solver Postprocessing -------------------------
Deleted CNumerics container.
Deleted CIntegration container.
Deleted CSolver container.
Deleted CIteration container.
Deleted CInterface container.
Deleted CGeometry container.
Deleted CFreeFormDefBox class.
Deleted CSurfaceMovement class.
Deleted CVolumetricMovement class.
Deleted CConfig container.
Deleted nInst container.
Deleted COutput class.
-------------------------------------------------------------------------

------------------------- Exit Success (SU2_CFD) ------------------------

