
-------------------------------------------------------------------------
|    ___ _   _ ___                                                      |
|   / __| | | |_  )   Release 7.4.0 "Blackbird"                         |
|   \__ \ |_| |/ /                                                      |
|   |___/\___//___|   Suite (Computational Fluid Dynamics Code)         |
|                                                                       |
-------------------------------------------------------------------------
| SU2 Project Website: https://su2code.github.io                        |
|                                                                       |
| The SU2 Project is maintained by the SU2 Foundation                   |
| (http://su2foundation.org)                                            |
-------------------------------------------------------------------------
| Copyright 2012-2022, SU2 Contributors                                 |
|                                                                       |
| SU2 is free software; you can redistribute it and/or                  |
| modify it under the terms of the GNU Lesser General Public            |
| License as published by the Free Software Foundation; either          |
| version 2.1 of the License, or (at your option) any later version.    |
|                                                                       |
| SU2 is distributed in the hope that it will be useful,                |
| but WITHOUT ANY WARRANTY; without even the implied warranty of        |
| MERCHANTABILITY or FITNESS FOR A PARTICULAR PURPOSE. See the GNU      |
| Lesser General Public License for more details.                       |
|                                                                       |
| You should have received a copy of the GNU Lesser General Public      |
| License along with SU2. If not, see <http://www.gnu.org/licenses/>.   |
-------------------------------------------------------------------------

Parsing config file for zone 0

----------------- Physical Case Definition ( Zone 0 ) -------------------
Incompressible RANS equations.
Turbulence model: Menter's k-omega SST-2003m with no production modification.
Hybrid RANS/LES: No Hybrid RANS/LES
Reading and writing binary SU2 native restart files.
Read flow solution from: ../../O1/case_A15/restart_flow_aoa15.dat.
Non-Dimensional simulation using intialization values.
The reference area is 1 m^2.
The semi-span will be computed using the max y(3D) value.
The reference length is 1.00898 m.
Reference origin for moment evaluation is (-0.756, 0, 0).
Surface(s) where the force coefficients are evaluated: AIRFOIL.

Surface(s) plotted in the output file: AIRFOIL.
Input mesh file name: ../meshG5/meshG5.su2

--------------- Space Numerical Integration ( Zone 0 ) ------------------
Flux difference splitting (FDS) upwind scheme for the flow inviscid terms.
Second order integration in space, with slope limiter.
Venkatakrishnan slope-limiting method, with constant: 0.056.
The reference element size is: 1. 
Average of gradients with correction (viscous flow terms).
Average of gradients with correction (viscous turbulence terms).
Gradient for upwind reconstruction: unweighted Least-Squares.
Gradient for viscous and source terms: Green-Gauss.

--------------- Time Numerical Integration  ( Zone 0 ) ------------------
Local time stepping (steady state simulation).
Euler implicit method for the flow equations.
FGMRES is used for solving the linear system.
Using a ILU(0) preconditioning.
Convergence criteria of the linear solver: 1e-06.
Max number of linear iterations: 10.
CFL adaptation. Factor down: 0.1, factor up: 1.2,
                lower limit: 1, upper limit: 1000,
                acceptable linear residual: 0.001.
Courant-Friedrichs-Lewy number:        2
Euler implicit time integration for the turbulence model.

------------------ Convergence Criteria  ( Zone 0 ) ---------------------
Maximum number of solver subiterations: 9999.
Begin convergence monitoring at iteration 10.
Residual minimum value: 1e-9.
Cauchy series min. value: 1e-06.
Number of Cauchy elements: 250.
Begin windowed time average at iteration 0.

-------------------- Output Information ( Zone 0 ) ----------------------
File writing frequency: 
+------------------------------------+
|                     File| Frequency|
+------------------------------------+
|                  RESTART|       200|
|                 PARAVIEW|       200|
|         SURFACE_PARAVIEW|       200|
+------------------------------------+
Writing the convergence history file every 1 inner iterations.
Writing the screen convergence history every 10 inner iterations.
The tabular file format is CSV (.csv).
Convergence history file name: history_aoa15.
Forces breakdown file name: forces_breakdown.dat.
Surface file name: surface_flow_aoa15.
Volume file name: flow_aoa15.
Restart file name: restart_flow_aoa15.dat.

------------- Config File Boundary Information ( Zone 0 ) ---------------
+-----------------------------------------------------------------------+
|                        Marker Type|                        Marker Name|
+-----------------------------------------------------------------------+
|                          Far-field|                           FARFIELD|
+-----------------------------------------------------------------------+
|                     Heat flux wall|                            AIRFOIL|
+-----------------------------------------------------------------------+

-------------------- Output Preprocessing ( Zone 0 ) --------------------

WARNING: SURFACE_PRESSURE_DROP can only be computed for at least 2 surfaces (outlet, inlet, ...)

Screen output fields: INNER_ITER, MIN_CFL, MAX_CFL, RMS_PRESSURE, CAUCHY_DRAG, DRAG
History output group(s): INNER_ITER, MIN_CFL, MAX_CFL, RMS_RES, LIFT, DRAG, MOMENT_Z, CAUCHY
Convergence field(s): RMS_PRESSURE, DRAG
Warning: No (valid) fields chosen for time convergence monitoring. Time convergence monitoring inactive.
Volume output fields: COORDINATES, SOLUTION, PRIMITIVE, RESIDUAL, MESH_QUALITY

------------------- Geometry Preprocessing ( Zone 0 ) -------------------
Two dimensional problem.
361479 grid points before partitioning.
360180 volume elements before partitioning.
2 surface markers.
724 boundary elements in index 0 (Marker = AIRFOIL).
1874 boundary elements in index 1 (Marker = FARFIELD).
Executing the partitioning functions.
Building the graph adjacency structure.
Calling ParMETIS... graph partitioning complete (4050 edge cuts).
Distributing ParMETIS coloring.
Rebalancing vertices.
Rebalancing volume element connectivity.
Rebalancing markers and surface elements.
369602 vertices including ghost points. 
364230 interior elements including halo cells. 
364230 quadrilaterals.
Establishing MPI communication patterns.
Setting point connectivity.
Renumbering points (Reverse Cuthill McKee Ordering).
Recomputing point connectivity.
Setting element connectivity.
Checking the numerical grid orientation.
All volume elements are correctly orientend.
There has been a re-orientation of 1305 LINE surface elements.
Identifying edges and vertices.
Setting the control volume structure.
Area of the computational grid: 103207.
Searching for the closest normal neighbors to the surfaces.
Storing a mapping from global to local point index.
Compute the surface curvature.
Max K: 227502. Mean K: 205.598. Standard deviation K: 4719.73.
Checking for periodicity.
Computing mesh quality statistics for the dual control volumes.
+--------------------------------------------------------------+
|           Mesh Quality Metric|        Minimum|        Maximum|
+--------------------------------------------------------------+
|    Orthogonality Angle (deg.)|        75.9136|             90|
|     CV Face Area Aspect Ratio|        1.00002|    3.17894e+06|
|           CV Sub-Volume Ratio|              1|         387.07|
+--------------------------------------------------------------+
Finding max control volume width.
Communicating number of neighbors.
Wetted area = 2.0597 m.
Area projection in the x-plane = 0.121116 m, y-plane = 1.00881 m.
Max. coordinate in the x-direction = 1.00898 m, y-direction = 0.0759837 m.
Min. coordinate in the x-direction = 4.86614e-06 m, y-direction = -0.0451345 m.
Computing wall distances.

-------------------- Solver Preprocessing ( Zone 0 ) --------------------
 Warning: There is no restart file (flow.meta).
 Computation will continue without updating metadata parameters.
Incompressible flow: rho_ref, vel_ref, and temp_ref
are based on the initial values, p_ref = rho_ref*vel_ref^2.
Force coefficients computed using initial values.
The reference area for force coeffs. is 1 m^2.
The reference length for force coeffs. is 1.00898 m.
The pressure is decomposed into thermodynamic and dynamic components.
The initial value of the dynamic pressure is 0.
Mach number: 0.0276747, computed using the Bulk modulus.
For external flows, the initial state is imposed at the far-field.
Angle of attack (deg): 15.0003, computed using the initial velocity.
Side slip angle (deg): 0, computed using the initial velocity.
Reynolds number per meter: 595000, computed using initial values.
Reynolds number is a byproduct of inputs only (not used internally).
SI units only. The grid should be dimensional (meters).
No energy equation.

-- Models:
+------------------------------------------------------------------------------+
|          Viscosity Model|        Conductivity Model|              Fluid Model|
+------------------------------------------------------------------------------+
|       CONSTANT_VISCOSITY|          CONSTANT_PRANDTL|         CONSTANT_DENSITY|
+------------------------------------------------------------------------------+
-- Fluid properties:
+------------------------------------------------------------------------------+
|                  Name|    Dim. value|    Ref. value|      Unit|Non-dim. value|
+------------------------------------------------------------------------------+
|             Viscosity|      1.92e-05|        11.424|   N.s/m^2|   1.68067e-06|
+------------------------------------------------------------------------------+
|        Prandtl (Lam.)|             -|             -|         -|          0.72|
|       Prandtl (Turb.)|             -|             -|         -|           0.9|
+------------------------------------------------------------------------------+
|          Bulk Modulus|        142000|             1|        Pa|        142000|
+------------------------------------------------------------------------------+
-- Initial and free-stream conditions:
+------------------------------------------------------------------------------+
|                  Name|    Dim. value|    Ref. value|      Unit|Non-dim. value|
+------------------------------------------------------------------------------+
|      Dynamic Pressure|             0|       108.756|        Pa|             0|
|        Total Pressure|       54.3782|       108.756|        Pa|           0.5|
|               Density|           1.2|           1.2|    kg/m^3|             1|
|            Velocity-X|        9.1956|          9.52|       m/s|      0.965925|
|            Velocity-Y|         2.464|          9.52|       m/s|      0.258824|
|    Velocity Magnitude|          9.52|          9.52|       m/s|             1|
+------------------------------------------------------------------------------+
|             Viscosity|      1.92e-05|        11.424|   N.s/m^2|   1.68067e-06|
|          Conductivity|             -|       3.59313|   W/m^2.K|             -|
|     Turb. Kin. Energy|       1.35946|       90.6304|   m^2/s^2|         0.015|
|     Spec. Dissipation|        8496.6|          9.52|       1/s|         892.5|
+------------------------------------------------------------------------------+
|           Mach Number|             -|             -|         -|     0.0276747|
|       Reynolds Number|             -|             -|         -|        595000|
+------------------------------------------------------------------------------+
Initialize Jacobian structure (Navier-Stokes). MG level: 0.
Initialize Jacobian structure (SST model).

------------------- Numerics Preprocessing ( Zone 0 ) -------------------

----------------- Integration Preprocessing ( Zone 0 ) ------------------

------------------- Iteration Preprocessing ( Zone 0 ) ------------------
Euler/Navier-Stokes/RANS fluid iteration.

------------------------------ Begin Solver -----------------------------

Simulation Run using the Single-zone Driver
+-----------------------------------------------------------------------------+
|  Inner_Iter|     Min CFL|     Max CFL|      rms[P]|  Cauchy[CD]|          CD|
+-----------------------------------------------------------------------------+
|           0|  2.4000e+00|  2.4000e+00|   -9.602761|  1.0000e+00|    0.024756|
|          10|  1.4860e+01|  1.4860e+01|   -5.871429|  1.4234e-03|    0.041287|
|          20|  9.2010e+01|  9.2010e+01|   -5.879764|  2.0034e-03|    0.055788|
|          30|  2.7474e+01|  2.7474e+01|   -5.795684|  3.1405e-03|    0.081315|
|          40|  1.4176e+01|  1.4176e+01|   -5.769693|  3.4020e-03|    0.087854|
|          50|  8.7774e+01|  8.7774e+01|   -5.743794|  4.0176e-03|    0.101779|
|          60|  1.0533e+02|  1.0533e+02|   -5.725832|  5.4380e-03|    0.146131|
|          70|  1.2639e+01|  1.2639e+01|   -5.727455|  6.4617e-03|    0.189448|
|          80|  7.8260e+01|  7.8260e+01|   -5.721357|  6.6714e-03|    0.199701|
|          90|  4.0381e+01|  4.0381e+01|   -5.714840|  6.9633e-03|    0.214295|
|         100|  2.0836e+01|  2.0836e+01|   -5.712602|  7.2442e-03|    0.229983|
|         110|  1.0751e+01|  1.0751e+01|   -5.722254|  7.5097e-03|    0.245729|
|         120|  6.6565e+01|  6.6565e+01|   -5.714358|  7.5890e-03|    0.250456|
|         130|  1.6564e+01|  1.6564e+01|   -5.706675|  7.9201e-03|    0.272198|
|         140|  1.0256e+02|  1.0256e+02|   -5.707143|  8.0551e-03|    0.280539|
|         150|  5.2917e+01|  5.2917e+01|   -5.696208|  8.1456e-03|    0.286702|
|         160|  9.1441e+01|  9.1441e+01|   -5.693730|  8.3745e-03|    0.303642|
|         170|  4.7182e+01|  4.7182e+01|   -5.677984|  8.4136e-03|    0.304019|
|         180|  2.4345e+01|  2.4345e+01|   -5.674839|  8.5231e-03|    0.312475|
|         190|  8.7231e+01|  8.7231e+01|   -5.688039|  8.6192e-03|    0.318871|
|         200|  3.1257e+01|  3.1257e+01|   -5.681115|  8.6534e-03|    0.320528|
+-----------------------------------------------------------------------+
|        File Writing Summary       |              Filename             |
+-----------------------------------------------------------------------+
|SU2 binary restart                 |restart_flow_aoa15.dat             |
|Paraview                           |flow_aoa15.vtu                     |
|Paraview surface                   |surface_flow_aoa15.vtu             |
+-----------------------------------------------------------------------+
+-----------------------------------------------------------------------------+
|  Inner_Iter|     Min CFL|     Max CFL|      rms[P]|  Cauchy[CD]|          CD|
+-----------------------------------------------------------------------------+
|         210|  1.6128e+01|  1.6128e+01|   -5.683589|  8.7252e-03|    0.322020|
|         220|  8.3216e+01|  8.3216e+01|   -5.682414|  8.7721e-03|    0.322292|
|         230|  3.5781e+01|  3.5781e+01|   -5.677775|  8.8079e-03|    0.323318|
|         240|  1.8462e+01|  1.8462e+01|   -5.675557|  8.8595e-03|    0.323278|
|         250|  7.9384e+01|  7.9384e+01|   -5.678236|  8.9089e-03|    0.321727|
|         260|  7.9384e+01|  7.9384e+01|   -5.680936|  7.5394e-03|    0.317925|
|         270|  3.4134e+01|  3.4134e+01|   -5.681507|  6.9918e-03|    0.315356|
|         280|  1.7612e+01|  1.7612e+01|   -5.686231|  5.9140e-03|    0.314387|
|         290|  7.5730e+01|  7.5730e+01|   -5.692546|  5.7061e-03|    0.312410|
|         300|  7.5730e+01|  7.5730e+01|   -5.698484|  5.2263e-03|    0.302216|
|         310|  7.5730e+01|  7.5730e+01|   -5.706713|  4.1413e-03|    0.278008|
|         320|  7.5730e+01|  7.5730e+01|   -5.716731|  3.7141e-03|    0.239762|
|         330|  7.5730e+01|  7.5730e+01|   -5.732702|  4.4123e-03|    0.191570|
|         340|  7.5730e+01|  7.5730e+01|   -5.753839|  5.5872e-03|    0.133652|
|         350|  1.0905e+01|  1.0905e+01|   -5.771529|  7.4339e-03|    0.076563|
|         360|  6.7521e+01|  6.7521e+01|   -5.773800|  8.0989e-03|    0.053299|
|         370|  8.1026e+01|  8.1026e+01|   -5.768670|  9.9425e-03|    0.005228|
|         380|  4.1807e+01|  4.1807e+01|   -5.767103|  1.0163e-02|   -0.008554|
|         390|  2.1572e+01|  2.1572e+01|   -5.766993|  1.0477e-02|   -0.019794|
|         400|  1.1131e+01|  1.1131e+01|   -5.797462|  1.0466e-02|   -0.019999|
+-----------------------------------------------------------------------+
|        File Writing Summary       |              Filename             |
+-----------------------------------------------------------------------+
|SU2 binary restart                 |restart_flow_aoa15.dat             |
|Paraview                           |flow_aoa15.vtu                     |
|Paraview surface                   |surface_flow_aoa15.vtu             |
+-----------------------------------------------------------------------+
+-----------------------------------------------------------------------------+
|  Inner_Iter|     Min CFL|     Max CFL|      rms[P]|  Cauchy[CD]|          CD|
+-----------------------------------------------------------------------------+
|         410|  6.8917e+01|  6.8917e+01|   -5.808719|  1.0335e-02|   -0.017557|
|         420|  3.5560e+01|  3.5560e+01|   -5.834607|  1.0568e-02|   -0.010766|
|         430|  1.8348e+01|  1.8348e+01|   -5.859428|  1.0839e-02|   -0.001232|
|         440|  9.4672e+00|  9.4672e+00|   -5.886792|  1.1147e-02|    0.008852|
|         450|  5.8619e+01|  5.8619e+01|   -5.900791|  1.1262e-02|    0.012585|
|         460|  3.0246e+01|  3.0246e+01|   -5.918015|  1.1353e-02|    0.016664|
|         470|  1.5606e+01|  1.5606e+01|   -5.932493|  1.1418e-02|    0.019467|
|         480|  6.7104e+00|  6.7104e+00|   -5.901318|  1.1567e-02|    0.024069|
|         490|  4.1549e+01|  4.1549e+01|   -5.891185|  1.1682e-02|    0.028232|
|         500|  2.1438e+01|  2.1438e+01|   -5.937524|  1.2210e-02|    0.042669|
|         510|  9.2181e+00|  9.2181e+00|   -5.970198|  1.2857e-02|    0.060195|
|         520|  5.7076e+01|  5.7076e+01|   -5.977930|  1.2923e-02|    0.061878|
|         530|  2.9450e+01|  2.9450e+01|   -5.992902|  1.2992e-02|    0.058678|
|         540|  1.5196e+01|  1.5196e+01|   -6.022087|  1.3147e-02|    0.053463|
|         550|  5.4448e+01|  5.4448e+01|   -6.059424|  1.3479e-02|    0.041750|
|         560|  2.8094e+01|  2.8094e+01|   -6.083705|  1.3607e-02|    0.030171|
|         570|  5.8256e+01|  5.8256e+01|   -6.122350|  1.3859e-02|    0.008967|
|         580|  2.5049e+01|  2.5049e+01|   -6.138240|  1.3096e-02|    0.005344|
|         590|  1.2925e+01|  1.2925e+01|   -6.154986|  1.1675e-02|    0.004923|
|         600|  5.5574e+01|  5.5574e+01|   -6.171385|  9.6606e-03|    0.007757|
+-----------------------------------------------------------------------+
|        File Writing Summary       |              Filename             |
+-----------------------------------------------------------------------+
|SU2 binary restart                 |restart_flow_aoa15.dat             |
|Paraview                           |flow_aoa15.vtu                     |
|Paraview surface                   |surface_flow_aoa15.vtu             |
+-----------------------------------------------------------------------+
+-----------------------------------------------------------------------------+
|  Inner_Iter|     Min CFL|     Max CFL|      rms[P]|  Cauchy[CD]|          CD|
+-----------------------------------------------------------------------------+
|         610|  6.6689e+00|  6.6689e+00|   -6.200736|  8.8309e-03|    0.008126|
|         620|  4.1292e+01|  4.1292e+01|   -6.206912|  6.9963e-03|    0.005920|
|         630|  2.1306e+01|  2.1306e+01|   -6.221942|  6.6186e-03|    0.001579|
|         640|  1.0993e+01|  1.0993e+01|   -6.242436|  6.3804e-03|   -0.003704|
|         650|  5.6723e+00|  5.6723e+00|   -6.267810|  6.5425e-03|   -0.009742|
|         660|  3.5121e+01|  3.5121e+01|   -6.283162|  6.5462e-03|   -0.012278|
|         670|  1.8122e+01|  1.8122e+01|   -6.303362|  6.4097e-03|   -0.015657|
|         680|  9.3505e+00|  9.3505e+00|   -6.309157|  6.1906e-03|   -0.019713|
|         690|  5.7896e+01|  5.7896e+01|   -6.307053|  5.9556e-03|   -0.023923|
|         700|  2.4894e+01|  2.4894e+01|   -6.300515|  5.9972e-03|   -0.028694|
|         710|  1.2845e+01|  1.2845e+01|   -6.290151|  6.1088e-03|   -0.035563|
|         720|  6.6276e+00|  6.6276e+00|   -6.282648|  6.2186e-03|   -0.041112|
|         730|  4.1037e+01|  4.1037e+01|   -6.279919|  6.1293e-03|   -0.043482|
|         740|  2.1174e+01|  2.1174e+01|   -6.286608|  6.0285e-03|   -0.045125|
|         750|  5.2688e+01|  5.2688e+01|   -6.322817|  5.4973e-03|   -0.046282|
|         760|  9.1044e+00|  9.1044e+00|   -6.355303|  4.8578e-03|   -0.047822|
|         770|  5.6372e+01|  5.6372e+01|   -6.361281|  4.7912e-03|   -0.048620|
|         780|  2.9087e+01|  2.9087e+01|   -6.362535|  4.6808e-03|   -0.049063|
|         790|  1.5008e+01|  1.5008e+01|   -6.369402|  4.4797e-03|   -0.049190|
|         800|  7.7439e+00|  7.7439e+00|   -6.373414|  4.0381e-03|   -0.048517|
+-----------------------------------------------------------------------+
|        File Writing Summary       |              Filename             |
+-----------------------------------------------------------------------+
|SU2 binary restart                 |restart_flow_aoa15.dat             |
|Paraview                           |flow_aoa15.vtu                     |
|Paraview surface                   |surface_flow_aoa15.vtu             |
+-----------------------------------------------------------------------+
+-----------------------------------------------------------------------------+
|  Inner_Iter|     Min CFL|     Max CFL|      rms[P]|  Cauchy[CD]|          CD|
+-----------------------------------------------------------------------------+
|         810|  4.7948e+01|  4.7948e+01|   -6.377649|  3.6243e-03|   -0.047282|
|         820|  6.9045e+00|  6.9045e+00|   -6.376000|  2.9213e-03|   -0.043652|
|         830|  4.2751e+01|  4.2751e+01|   -6.375575|  2.8242e-03|   -0.042458|
|         840|  2.2059e+01|  2.2059e+01|   -6.377244|  2.7946e-03|   -0.042056|
|         850|  1.1382e+01|  1.1382e+01|   -6.379767|  2.6967e-03|   -0.042443|
|         860|  5.8727e+00|  5.8727e+00|   -6.389074|  2.6389e-03|   -0.043520|
|         870|  3.6362e+01|  3.6362e+01|   -6.394988|  2.5796e-03|   -0.044245|
|         880|  4.3635e+01|  4.3635e+01|   -6.429652|  2.4360e-03|   -0.044930|
|         890|  1.3029e+01|  1.3029e+01|   -6.462333|  2.2363e-03|   -0.044639|
|         900|  5.6024e+00|  5.6024e+00|   -6.497433|  2.0013e-03|   -0.044637|
|         910|  3.4688e+01|  3.4688e+01|   -6.524840|  1.9057e-03|   -0.044781|
|         920|  1.4915e+01|  1.4915e+01|   -6.589878|  1.7773e-03|   -0.044832|
|         930|  6.4133e+01|  6.4133e+01|   -6.678417|  1.6789e-03|   -0.043237|
|         940|  1.0000e+00|  1.0000e+00|   -6.696145|  1.5442e-03|   -0.042394|
|         950|  2.9860e+00|  2.9860e+00|   -6.697194|  1.3587e-03|   -0.042261|
|         960|  1.8488e+01|  1.8488e+01|   -6.689696|  1.1161e-03|   -0.041457|
|         970|  9.5396e+00|  9.5396e+00|   -6.635111|  1.0407e-03|   -0.037791|
|         980|  5.9067e+01|  5.9067e+01|   -6.672339|  1.0619e-03|   -0.034891|
|         990|  7.0880e+00|  7.0880e+00|   -6.635020|  1.3091e-03|   -0.027069|
|        1000|  4.3887e+01|  4.3887e+01|   -6.638449|  1.3123e-03|   -0.025832|
+-----------------------------------------------------------------------+
|        File Writing Summary       |              Filename             |
+-----------------------------------------------------------------------+
|SU2 binary restart                 |restart_flow_aoa15.dat             |
|Paraview                           |flow_aoa15.vtu                     |
|Paraview surface                   |surface_flow_aoa15.vtu             |
+-----------------------------------------------------------------------+
+-----------------------------------------------------------------------------+
|  Inner_Iter|     Min CFL|     Max CFL|      rms[P]|  Cauchy[CD]|          CD|
+-----------------------------------------------------------------------------+
|        1010|  2.2645e+01|  2.2645e+01|   -6.656616|  1.2824e-03|   -0.025039|
|        1020|  1.1684e+01|  1.1684e+01|   -6.657939|  1.2756e-03|   -0.024412|
|        1030|  6.0288e+01|  6.0288e+01|   -6.756290|  1.2709e-03|   -0.024086|
|        1040|  6.0288e+01|  6.0288e+01|   -6.796362|  1.2895e-03|   -0.023436|
|        1050|  6.0288e+01|  6.0288e+01|   -6.753792|  1.3893e-03|   -0.020268|
|        1060|  6.0288e+01|  6.0288e+01|   -6.712944|  1.5283e-03|   -0.015557|
|        1070|  7.2346e+01|  7.2346e+01|   -6.645411|  1.5327e-03|   -0.011818|
|        1080|  3.7329e+01|  3.7329e+01|   -6.721498|  1.5342e-03|   -0.010586|
|        1090|  1.9261e+01|  1.9261e+01|   -6.754710|  1.5733e-03|   -0.009208|
|        1100|  9.9382e+00|  9.9382e+00|   -6.533808|  1.6227e-03|   -0.007584|
|        1110|  6.1534e+01|  6.1534e+01|   -6.678468|  1.6225e-03|   -0.006514|
|        1120|  3.1750e+01|  3.1750e+01|   -6.740391|  1.6257e-03|   -0.005709|
|        1130|  6.5838e+01|  6.5838e+01|   -6.561650|  1.6339e-03|   -0.004754|
|        1140|  7.9005e+00|  7.9005e+00|   -6.545293|  1.6338e-03|   -0.004466|
|        1150|  4.8918e+01|  4.8918e+01|   -6.677795|  1.6335e-03|   -0.004310|
|        1160|  7.0442e+01|  7.0442e+01|   -6.541979|  1.6805e-03|   -0.002990|
|        1170|  7.0442e+01|  7.0442e+01|   -6.544665|  1.7771e-03|   -0.000405|
|        1180|  2.1034e+01|  2.1034e+01|   -6.779283|  1.7808e-03|    0.001284|
|        1190|  1.0853e+01|  1.0853e+01|   -6.337232|  1.7951e-03|    0.002484|
|        1200|  6.7199e+01|  6.7199e+01|   -6.631243|  1.8201e-03|    0.003242|
+-----------------------------------------------------------------------+
|        File Writing Summary       |              Filename             |
+-----------------------------------------------------------------------+
|SU2 binary restart                 |restart_flow_aoa15.dat             |
|Paraview                           |flow_aoa15.vtu                     |
|Paraview surface                   |surface_flow_aoa15.vtu             |
+-----------------------------------------------------------------------+
+-----------------------------------------------------------------------------+
|  Inner_Iter|     Min CFL|     Max CFL|      rms[P]|  Cauchy[CD]|          CD|
+-----------------------------------------------------------------------------+
|        1210|  1.0000e+00|  1.0000e+00|   -6.811939|  1.8045e-03|    0.003656|
|        1220|  6.1917e+00|  6.1917e+00|   -6.817933|  1.6601e-03|    0.003712|
|        1230|  3.8338e+01|  3.8338e+01|   -6.743222|  1.5567e-03|    0.004026|
|        1240|  1.9781e+01|  1.9781e+01|   -6.797548|  1.2673e-03|    0.004613|
|        1250|  1.0207e+01|  1.0207e+01|   -6.522872|  1.2506e-03|    0.005432|
|        1260|  6.3197e+01|  6.3197e+01|   -6.616247|  1.2453e-03|    0.006092|
|        1270|  1.0000e+00|  1.0000e+00|   -6.573175|  1.2604e-03|    0.007098|
|        1280|  3.5832e+00|  3.5832e+00|   -6.672899|  1.2496e-03|    0.007154|
|        1290|  2.2186e+01|  2.2186e+01|   -6.743357|  1.2370e-03|    0.007489|
|        1300|  1.1448e+01|  1.1448e+01|   -6.560602|  1.1704e-03|    0.008991|
|        1310|  7.0880e+01|  7.0880e+01|   -6.786183|  1.0296e-03|    0.010183|
|        1320|  3.6573e+01|  3.6573e+01|   -6.833252|  9.1445e-04|    0.011043|
|        1330|  1.8871e+01|  1.8871e+01|   -6.853641|  9.0996e-04|    0.012163|
|        1340|  9.7369e+00|  9.7369e+00|   -6.790895|  8.9020e-04|    0.013047|
|        1350|  6.0288e+01|  6.0288e+01|   -6.930391|  8.4681e-04|    0.013586|
|        1360|  3.1107e+01|  3.1107e+01|   -6.921767|  8.2107e-04|    0.014013|
|        1370|  6.4504e+01|  6.4504e+01|   -6.859869|  8.1769e-04|    0.014734|
|        1380|  6.4504e+01|  6.4504e+01|   -6.817665|  8.1859e-04|    0.015710|
|        1390|  6.4504e+01|  6.4504e+01|   -6.808854|  8.5714e-04|    0.016962|
|        1400|  2.7736e+01|  2.7736e+01|   -6.852701|  8.7446e-04|    0.017552|
+-----------------------------------------------------------------------+
|        File Writing Summary       |              Filename             |
+-----------------------------------------------------------------------+
|SU2 binary restart                 |restart_flow_aoa15.dat             |
|Paraview                           |flow_aoa15.vtu                     |
|Paraview surface                   |surface_flow_aoa15.vtu             |
+-----------------------------------------------------------------------+
+-----------------------------------------------------------------------------+
|  Inner_Iter|     Min CFL|     Max CFL|      rms[P]|  Cauchy[CD]|          CD|
+-----------------------------------------------------------------------------+
|        1410|  1.0000e+00|  1.0000e+00|   -6.685746|  8.4004e-04|    0.018011|
|        1420|  4.2998e+00|  4.2998e+00|   -6.793372|  7.3778e-04|    0.018040|
|        1430|  2.6623e+01|  2.6623e+01|   -6.875734|  6.7698e-04|    0.018209|
|        1440|  6.6247e+01|  6.6247e+01|   -6.817827|  6.5146e-04|    0.018771|
|        1450|  6.6247e+01|  6.6247e+01|   -6.791808|  6.4085e-04|    0.019263|
|        1460|  6.6247e+01|  6.6247e+01|   -6.762924|  6.4892e-04|    0.019879|
|        1470|  6.6247e+01|  6.6247e+01|   -6.747812|  6.8098e-04|    0.020737|
|        1480|  6.6247e+01|  6.6247e+01|   -6.741775|  7.0661e-04|    0.021692|
|        1490|  6.6247e+01|  6.6247e+01|   -6.728047|  7.2334e-04|    0.022696|
|        1500|  6.6247e+01|  6.6247e+01|   -6.704211|  7.3913e-04|    0.023911|
|        1510|  1.9781e+01|  1.9781e+01|   -6.795318|  7.4865e-04|    0.024808|
|        1520|  1.0207e+01|  1.0207e+01|   -6.571820|  7.4106e-04|    0.025624|
|        1530|  6.3197e+01|  6.3197e+01|   -6.721339|  7.6487e-04|    0.026276|
|        1540|  3.2609e+01|  3.2609e+01|   -6.752040|  7.7776e-04|    0.026933|
|        1550|  6.7617e+01|  6.7617e+01|   -6.697333|  7.6950e-04|    0.028228|
|        1560|  6.7617e+01|  6.7617e+01|   -6.725095|  7.7372e-04|    0.029526|
|        1570|  6.7617e+01|  6.7617e+01|   -6.750407|  7.8843e-04|    0.030754|
|        1580|  6.7617e+01|  6.7617e+01|   -6.757950|  7.8861e-04|    0.031879|
|        1590|  6.7617e+01|  6.7617e+01|   -6.763554|  7.8636e-04|    0.032706|
|        1600|  6.7617e+01|  6.7617e+01|   -6.775852|  7.8466e-04|    0.033202|
+-----------------------------------------------------------------------+
|        File Writing Summary       |              Filename             |
+-----------------------------------------------------------------------+
|SU2 binary restart                 |restart_flow_aoa15.dat             |
|Paraview                           |flow_aoa15.vtu                     |
|Paraview surface                   |surface_flow_aoa15.vtu             |
+-----------------------------------------------------------------------+
+-----------------------------------------------------------------------------+
|  Inner_Iter|     Min CFL|     Max CFL|      rms[P]|  Cauchy[CD]|          CD|
+-----------------------------------------------------------------------------+
|        1610|  3.4889e+01|  3.4889e+01|   -6.810944|  7.7320e-04|    0.033343|
|        1620|  7.2346e+01|  7.2346e+01|   -6.792835|  7.5265e-04|    0.033550|
|        1630|  7.2346e+01|  7.2346e+01|   -6.796117|  7.1821e-04|    0.033666|
|        1640|  3.7329e+01|  3.7329e+01|   -6.830577|  6.6841e-04|    0.033672|
|        1650|  7.7405e+01|  7.7405e+01|   -6.806973|  6.4858e-04|    0.033579|
|        1660|  7.7405e+01|  7.7405e+01|   -6.814477|  6.3598e-04|    0.033435|
|        1670|  1.9261e+01|  1.9261e+01|   -6.859604|  6.3628e-04|    0.033398|
|        1680|  9.9382e+00|  9.9382e+00|   -6.832172|  6.2986e-04|    0.033390|
|        1690|  6.1534e+01|  6.1534e+01|   -6.860317|  6.0804e-04|    0.033407|
|        1700|  7.3841e+01|  7.3841e+01|   -6.848271|  5.9150e-04|    0.033486|
|        1710|  3.8101e+01|  3.8101e+01|   -6.877441|  5.6830e-04|    0.033521|
|        1720|  1.9659e+01|  1.9659e+01|   -6.882091|  5.3725e-04|    0.033603|
|        1730|  7.0442e+01|  7.0442e+01|   -6.875186|  5.0579e-04|    0.033771|
|        1740|  7.0442e+01|  7.0442e+01|   -6.882542|  4.7889e-04|    0.034104|
|        1750|  7.0442e+01|  7.0442e+01|   -6.884545|  4.4461e-04|    0.034461|
|        1760|  7.0442e+01|  7.0442e+01|   -6.881721|  4.2152e-04|    0.034781|
|        1770|  7.0442e+01|  7.0442e+01|   -6.876334|  3.9814e-04|    0.035013|
|        1780|  7.0442e+01|  7.0442e+01|   -6.872485|  3.7494e-04|    0.035077|
|        1790|  7.0442e+01|  7.0442e+01|   -6.869454|  3.5403e-04|    0.034942|
|        1800|  7.0442e+01|  7.0442e+01|   -6.866891|  3.1315e-04|    0.034669|
+-----------------------------------------------------------------------+
|        File Writing Summary       |              Filename             |
+-----------------------------------------------------------------------+
|SU2 binary restart                 |restart_flow_aoa15.dat             |
|Paraview                           |flow_aoa15.vtu                     |
|Paraview surface                   |surface_flow_aoa15.vtu             |
+-----------------------------------------------------------------------+
+-----------------------------------------------------------------------------+
|  Inner_Iter|     Min CFL|     Max CFL|      rms[P]|  Cauchy[CD]|          CD|
+-----------------------------------------------------------------------------+
|        1810|  7.0442e+01|  7.0442e+01|   -6.866091|  2.7625e-04|    0.034294|
|        1820|  3.6346e+01|  3.6346e+01|   -6.903750|  2.3440e-04|    0.034113|
|        1830|  7.5368e+01|  7.5368e+01|   -6.870395|  2.0650e-04|    0.033685|
|        1840|  1.8754e+01|  1.8754e+01|   -6.913884|  1.8693e-04|    0.033347|
|        1850|  9.6766e+00|  9.6766e+00|   -6.877261|  1.7636e-04|    0.033115|
|        1860|  5.9915e+01|  5.9915e+01|   -6.902795|  1.7564e-04|    0.032992|
|        1870|  3.0915e+01|  3.0915e+01|   -6.915308|  1.7272e-04|    0.032859|
|        1880|  7.6926e+01|  7.6926e+01|   -6.882295|  1.7346e-04|    0.032724|
|        1890|  7.6926e+01|  7.6926e+01|   -6.875970|  1.7491e-04|    0.032733|
|        1900|  7.6926e+01|  7.6926e+01|   -6.869114|  1.7882e-04|    0.032924|
|        1910|  9.2311e+01|  9.2311e+01|   -6.861064|  1.8570e-04|    0.033240|
|        1920|  4.7631e+01|  4.7631e+01|   -6.897645|  1.8945e-04|    0.033371|
|        1930|  8.2306e+01|  8.2306e+01|   -6.854041|  2.0228e-04|    0.033700|
|        1940|  8.2306e+01|  8.2306e+01|   -6.850894|  2.1272e-04|    0.033977|
|        1950|  2.4576e+01|  2.4576e+01|   -6.892401|  2.1292e-04|    0.034061|
|        1960|  1.2681e+01|  1.2681e+01|   -6.829503|  2.1324e-04|    0.034105|
|        1970|  7.8517e+01|  7.8517e+01|   -6.891744|  2.1045e-04|    0.034113|
|        1980|  1.3568e+01|  1.3568e+01|   -6.867404|  2.0518e-04|    0.034076|
|        1990|  8.4007e+01|  8.4007e+01|   -6.903384|  1.9352e-04|    0.034035|
|        2000|  4.3346e+01|  4.3346e+01|   -6.919791|  1.8071e-04|    0.033998|
+-----------------------------------------------------------------------+
|        File Writing Summary       |              Filename             |
+-----------------------------------------------------------------------+
|SU2 binary restart                 |restart_flow_aoa15.dat             |
|Paraview                           |flow_aoa15.vtu                     |
|Paraview surface                   |surface_flow_aoa15.vtu             |
+-----------------------------------------------------------------------+
+-----------------------------------------------------------------------------+
|  Inner_Iter|     Min CFL|     Max CFL|      rms[P]|  Cauchy[CD]|          CD|
+-----------------------------------------------------------------------------+
|        2010|  7.4902e+01|  7.4902e+01|   -6.908850|  1.7296e-04|    0.033872|
|        2020|  2.6839e+01|  2.6839e+01|   -6.931846|  1.6692e-04|    0.033791|
|        2030|  8.0140e+01|  8.0140e+01|   -6.931653|  1.6808e-04|    0.033690|
|        2040|  8.0140e+01|  8.0140e+01|   -6.951937|  1.6501e-04|    0.033633|
|        2050|  1.3848e+01|  1.3848e+01|   -6.948781|  1.5610e-04|    0.033683|
|        2060|  8.5744e+01|  8.5744e+01|   -6.994265|  1.4418e-04|    0.033760|
|        2070|  4.4242e+01|  4.4242e+01|   -7.011898|  1.4035e-04|    0.033846|
|        2080|  7.6450e+01|  7.6450e+01|   -7.010189|  1.3632e-04|    0.034172|
|        2090|  7.6450e+01|  7.6450e+01|   -7.027724|  1.4122e-04|    0.034633|
|        2100|  7.6450e+01|  7.6450e+01|   -7.038891|  1.5284e-04|    0.035156|
|        2110|  3.9447e+01|  3.9447e+01|   -7.071497|  1.5675e-04|    0.035376|
|        2120|  8.1797e+01|  8.1797e+01|   -7.048411|  1.6877e-04|    0.035811|
|        2130|  8.1797e+01|  8.1797e+01|   -7.052170|  1.7902e-04|    0.036201|
|        2140|  8.1797e+01|  8.1797e+01|   -7.043638|  1.8676e-04|    0.036438|
|        2150|  8.1797e+01|  8.1797e+01|   -7.030358|  1.8261e-04|    0.036526|
|        2160|  8.1797e+01|  8.1797e+01|   -7.014967|  1.7131e-04|    0.036497|
|        2170|  8.1797e+01|  8.1797e+01|   -7.000732|  1.7016e-04|    0.036395|
|        2180|  2.4424e+01|  2.4424e+01|   -7.037844|  1.5977e-04|    0.036326|
|        2190|  8.7517e+01|  8.7517e+01|   -6.994012|  1.5111e-04|    0.036265|
|        2200|  1.8148e+01|  1.8148e+01|   -7.022806|  1.4860e-04|    0.036244|
+-----------------------------------------------------------------------+
|        File Writing Summary       |              Filename             |
+-----------------------------------------------------------------------+
|SU2 binary restart                 |restart_flow_aoa15.dat             |
|Paraview                           |flow_aoa15.vtu                     |
|Paraview surface                   |surface_flow_aoa15.vtu             |
+-----------------------------------------------------------------------+
+-----------------------------------------------------------------------------+
|  Inner_Iter|     Min CFL|     Max CFL|      rms[P]|  Cauchy[CD]|          CD|
+-----------------------------------------------------------------------------+
|        2210|  9.3637e+00|  9.3637e+00|   -7.001037|  1.4764e-04|    0.036262|
|        2220|  5.7978e+01|  5.7978e+01|   -7.021499|  1.4822e-04|    0.036289|
|        2230|  2.9915e+01|  2.9915e+01|   -7.024883|  1.4889e-04|    0.036342|
|        2240|  1.5436e+01|  1.5436e+01|   -6.996771|  1.5112e-04|    0.036439|
|        2250|  7.9644e+01|  7.9644e+01|   -7.018722|  1.5433e-04|    0.036556|
|        2260|  7.9644e+01|  7.9644e+01|   -7.011565|  1.5984e-04|    0.036821|
|        2270|  1.0000e+00|  1.0000e+00|   -6.997151|  1.6041e-04|    0.036915|
|        2280|  2.0736e+00|  2.0736e+00|   -7.013585|  1.5652e-04|    0.036919|
|        2290|  1.4400e+00|  1.4400e+00|   -7.021313|  1.5438e-04|    0.036923|
|        2300|  8.9161e+00|  8.9161e+00|   -7.036719|  1.5286e-04|    0.036935|
|        2310|  5.5206e+01|  5.5206e+01|   -7.046281|  1.5274e-04|    0.037009|
|        2320|  2.8485e+01|  2.8485e+01|   -7.043100|  1.5373e-04|    0.037119|
|        2330|  8.5056e+01|  8.5056e+01|   -7.039692|  1.4573e-04|    0.037247|
|        2340|  8.5056e+01|  8.5056e+01|   -7.053890|  1.2989e-04|    0.037311|
|        2350|  1.2248e+01|  1.2248e+01|   -7.027450|  1.1117e-04|    0.037256|
|        2360|  7.5837e+01|  7.5837e+01|   -7.101865|  1.0464e-04|    0.037199|
|        2370|  3.9130e+01|  3.9130e+01|   -7.123434|  9.0347e-05|    0.037122|
|        2380|  8.1140e+01|  8.1140e+01|   -7.111220|  8.3277e-05|    0.036908|
|        2390|  9.7369e+01|  9.7369e+01|   -7.131500|  8.5235e-05|    0.036623|
|        2400|  5.0240e+01|  5.0240e+01|   -7.180157|  8.6161e-05|    0.036512|
+-----------------------------------------------------------------------+
|        File Writing Summary       |              Filename             |
+-----------------------------------------------------------------------+
|SU2 binary restart                 |restart_flow_aoa15.dat             |
|Paraview                           |flow_aoa15.vtu                     |
|Paraview surface                   |surface_flow_aoa15.vtu             |
+-----------------------------------------------------------------------+
+-----------------------------------------------------------------------------+
|  Inner_Iter|     Min CFL|     Max CFL|      rms[P]|  Cauchy[CD]|          CD|
+-----------------------------------------------------------------------------+
|        2410|  8.6815e+01|  8.6815e+01|   -7.155391|  9.5558e-05|    0.036244|
|        2420|  8.6815e+01|  8.6815e+01|   -7.171234|  1.0013e-04|    0.036028|
|        2430|  2.1602e+01|  2.1602e+01|   -7.233610|  9.9928e-05|    0.035963|
|        2440|  1.1146e+01|  1.1146e+01|   -7.188321|  9.8211e-05|    0.035948|
|        2450|  6.9015e+01|  6.9015e+01|   -7.226329|  9.7632e-05|    0.035955|
|        2460|  8.2818e+01|  8.2818e+01|   -7.198104|  1.0045e-04|    0.036045|
|        2470|  8.2818e+01|  8.2818e+01|   -7.189287|  1.0477e-04|    0.036179|
|        2480|  4.2732e+01|  4.2732e+01|   -7.229417|  1.0490e-04|    0.036235|
|        2490|  8.8610e+01|  8.8610e+01|   -7.180058|  1.0492e-04|    0.036333|
|        2500|  8.8610e+01|  8.8610e+01|   -7.169707|  1.0184e-04|    0.036372|
|        2510|  2.6459e+01|  2.6459e+01|   -7.205248|  9.1912e-05|    0.036356|
|        2520|  1.3652e+01|  1.3652e+01|   -7.143796|  8.9837e-05|    0.036313|
|        2530|  8.4530e+01|  8.4530e+01|   -7.191668|  9.1737e-05|    0.036262|
|        2540|  8.4530e+01|  8.4530e+01|   -7.171409|  9.7834e-05|    0.036105|
|        2550|  1.0144e+01|  1.0144e+01|   -7.170558|  1.0440e-04|    0.035929|
|        2560|  6.2807e+01|  6.2807e+01|   -7.198431|  1.0370e-04|    0.035873|
|        2570|  9.0442e+01|  9.0442e+01|   -7.176406|  1.0485e-04|    0.035733|
|        2580|  9.0442e+01|  9.0442e+01|   -7.186573|  1.0205e-04|    0.035676|
|        2590|  9.0442e+01|  9.0442e+01|   -7.200115|  1.0225e-04|    0.035746|
|        2600|  9.0442e+01|  9.0442e+01|   -7.219321|  1.0725e-04|    0.035926|
+-----------------------------------------------------------------------+
|        File Writing Summary       |              Filename             |
+-----------------------------------------------------------------------+
|SU2 binary restart                 |restart_flow_aoa15.dat             |
|Paraview                           |flow_aoa15.vtu                     |
|Paraview surface                   |surface_flow_aoa15.vtu             |
+-----------------------------------------------------------------------+
+-----------------------------------------------------------------------------+
|  Inner_Iter|     Min CFL|     Max CFL|      rms[P]|  Cauchy[CD]|          CD|
+-----------------------------------------------------------------------------+
|        2610|  9.0442e+01|  9.0442e+01|   -7.240840|  1.1417e-04|    0.036156|
|        2620|  1.0853e+02|  1.0853e+02|   -7.264539|  1.1984e-04|    0.036375|
|        2630|  5.5999e+01|  5.5999e+01|   -7.327958|  1.1390e-04|    0.036440|
|        2640|  2.4079e+01|  2.4079e+01|   -7.340537|  1.0534e-04|    0.036512|
|        2650|  1.2424e+01|  1.2424e+01|   -7.309405|  1.0278e-04|    0.036558|
|        2660|  7.6926e+01|  7.6926e+01|   -7.358338|  9.2654e-05|    0.036574|
|        2670|  3.9692e+01|  3.9692e+01|   -7.383512|  8.4246e-05|    0.036579|
|        2680|  2.0480e+01|  2.0480e+01|   -7.389155|  8.1949e-05|    0.036572|
|        2690|  1.0567e+01|  1.0567e+01|   -7.357395|  8.2148e-05|    0.036549|
|        2700|  5.4525e+00|  5.4525e+00|   -7.392703|  8.1966e-05|    0.036547|
|        2710|  1.0000e+00|  1.0000e+00|   -7.400267|  7.8435e-05|    0.036545|
|        2720|  1.0000e+00|  1.0000e+00|   -7.405388|  7.3086e-05|    0.036544|
|        2730|  1.0000e+00|  1.0000e+00|   -7.407644|  7.0857e-05|    0.036544|
|        2740|  2.9860e+00|  2.9860e+00|   -7.411394|  6.6996e-05|    0.036543|
|        2750|  1.8488e+01|  1.8488e+01|   -7.414201|  6.5668e-05|    0.036536|
|        2760|  9.5396e+00|  9.5396e+00|   -7.373727|  6.6915e-05|    0.036489|
|        2770|  5.9067e+01|  5.9067e+01|   -7.400348|  6.6417e-05|    0.036458|
|        2780|  2.1165e+01|  2.1165e+01|   -7.409628|  6.6955e-05|    0.036394|
|        2790|  9.1004e+01|  9.1004e+01|   -7.372493|  6.3106e-05|    0.036333|
|        2800|  9.1004e+01|  9.1004e+01|   -7.356228|  5.8362e-05|    0.036275|
+-----------------------------------------------------------------------+
|        File Writing Summary       |              Filename             |
+-----------------------------------------------------------------------+
|SU2 binary restart                 |restart_flow_aoa15.dat             |
|Paraview                           |flow_aoa15.vtu                     |
|Paraview surface                   |surface_flow_aoa15.vtu             |
+-----------------------------------------------------------------------+
+-----------------------------------------------------------------------------+
|  Inner_Iter|     Min CFL|     Max CFL|      rms[P]|  Cauchy[CD]|          CD|
+-----------------------------------------------------------------------------+
|        2810|  9.1004e+01|  9.1004e+01|   -7.346584|  5.7207e-05|    0.036298|
|        2820|  4.6956e+01|  4.6956e+01|   -7.391046|  5.2461e-05|    0.036318|
|        2830|  2.4228e+01|  2.4228e+01|   -7.392083|  5.2319e-05|    0.036372|
|        2840|  8.6815e+01|  8.6815e+01|   -7.356633|  5.3121e-05|    0.036462|
|        2850|  1.0000e+00|  1.0000e+00|   -7.277671|  4.9225e-05|    0.036544|
|        2860|  1.0000e+00|  1.0000e+00|   -7.320476|  4.0091e-05|    0.036545|
|        2870|  5.1598e+00|  5.1598e+00|   -7.346911|  3.1500e-05|    0.036549|
|        2880|  3.1948e+01|  3.1948e+01|   -7.395245|  2.9755e-05|    0.036571|
|        2890|  9.5396e+01|  9.5396e+01|   -7.353985|  3.1629e-05|    0.036690|
|        2900|  1.3737e+01|  1.3737e+01|   -7.347430|  3.4384e-05|    0.036805|
|        2910|  8.5056e+01|  8.5056e+01|   -7.385951|  3.4810e-05|    0.036831|
|        2920|  4.3887e+01|  4.3887e+01|   -7.406920|  3.5170e-05|    0.036846|
|        2930|  9.1004e+01|  9.1004e+01|   -7.381054|  3.5602e-05|    0.036830|
|        2940|  9.1004e+01|  9.1004e+01|   -7.390208|  3.7491e-05|    0.036759|
|        2950|  9.1004e+01|  9.1004e+01|   -7.401858|  4.2173e-05|    0.036640|
|        2960|  1.5726e+01|  1.5726e+01|   -7.382529|  4.6530e-05|    0.036530|
|        2970|  9.7369e+01|  9.7369e+01|   -7.457126|  4.8620e-05|    0.036477|
|        2980|  1.1684e+01|  1.1684e+01|   -7.445095|  5.1285e-05|    0.036409|
|        2990|  7.2346e+01|  7.2346e+01|   -7.508250|  5.1812e-05|    0.036395|
|        3000|  1.0000e+00|  1.0000e+00|   -7.484560|  5.1726e-05|    0.036400|
+-----------------------------------------------------------------------+
|        File Writing Summary       |              Filename             |
+-----------------------------------------------------------------------+
|SU2 binary restart                 |restart_flow_aoa15.dat             |
|Paraview                           |flow_aoa15.vtu                     |
|Paraview surface                   |surface_flow_aoa15.vtu             |
+-----------------------------------------------------------------------+
+-----------------------------------------------------------------------------+
|  Inner_Iter|     Min CFL|     Max CFL|      rms[P]|  Cauchy[CD]|          CD|
+-----------------------------------------------------------------------------+
|        3010|  1.0000e+00|  1.0000e+00|   -7.511304|  4.9843e-05|    0.036400|
|        3020|  4.2998e+00|  4.2998e+00|   -7.519903|  4.8653e-05|    0.036400|
|        3030|  2.6623e+01|  2.6623e+01|   -7.543795|  4.6106e-05|    0.036401|
|        3040|  1.3737e+01|  1.3737e+01|   -7.471089|  4.4535e-05|    0.036422|
|        3050|  1.0000e+00|  1.0000e+00|   -7.530370|  4.2379e-05|    0.036426|
|        3060|  1.2000e+00|  1.2000e+00|   -7.553827|  4.1318e-05|    0.036427|
|        3070|  7.4301e+00|  7.4301e+00|   -7.572422|  4.0570e-05|    0.036428|
|        3080|  4.6005e+01|  4.6005e+01|   -7.565604|  3.8907e-05|    0.036440|
|        3090|  2.3738e+01|  2.3738e+01|   -7.573022|  3.6988e-05|    0.036482|
|        3100|  1.2248e+01|  1.2248e+01|   -7.526536|  3.5988e-05|    0.036539|
|        3110|  7.5837e+01|  7.5837e+01|   -7.570945|  3.7379e-05|    0.036576|
|        3120|  9.1004e+01|  9.1004e+01|   -7.533929|  4.1725e-05|    0.036689|
|        3130|  3.9130e+01|  3.9130e+01|   -7.594162|  4.2565e-05|    0.036732|
|        3140|  9.7369e+01|  9.7369e+01|   -7.529590|  3.9657e-05|    0.036777|
|        3150|  5.0240e+01|  5.0240e+01|   -7.581879|  3.5228e-05|    0.036782|
|        3160|  2.5923e+01|  2.5923e+01|   -7.593807|  3.4297e-05|    0.036779|
|        3170|  9.2886e+01|  9.2886e+01|   -7.539221|  3.4696e-05|    0.036755|
|        3180|  9.2886e+01|  9.2886e+01|   -7.531198|  3.6635e-05|    0.036689|
|        3190|  9.2886e+01|  9.2886e+01|   -7.525016|  3.7137e-05|    0.036606|
|        3200|  3.3283e+01|  3.3283e+01|   -7.575418|  3.4108e-05|    0.036562|
+-----------------------------------------------------------------------+
|        File Writing Summary       |              Filename             |
+-----------------------------------------------------------------------+
|SU2 binary restart                 |restart_flow_aoa15.dat             |
|Paraview                           |flow_aoa15.vtu                     |
|Paraview surface                   |surface_flow_aoa15.vtu             |
+-----------------------------------------------------------------------+
+-----------------------------------------------------------------------------+
|  Inner_Iter|     Min CFL|     Max CFL|      rms[P]|  Cauchy[CD]|          CD|
+-----------------------------------------------------------------------------+
|        3210|  9.9382e+01|  9.9382e+01|   -7.531392|  3.1264e-05|    0.036523|
|        3220|  2.9675e+01|  2.9675e+01|   -7.586685|  2.9537e-05|    0.036513|
|        3230|  1.5312e+01|  1.5312e+01|   -7.530127|  2.7461e-05|    0.036524|
|        3240|  1.0000e+00|  1.0000e+00|   -7.572126|  2.7092e-05|    0.036529|
|        3250|  5.1598e+00|  5.1598e+00|   -7.605016|  2.6928e-05|    0.036530|
|        3260|  2.9860e+00|  2.9860e+00|   -7.618066|  2.6938e-05|    0.036530|
|        3270|  1.8488e+01|  1.8488e+01|   -7.626724|  2.7020e-05|    0.036533|
|        3280|  9.5396e+00|  9.5396e+00|   -7.589864|  2.8392e-05|    0.036568|
|        3290|  1.0000e+00|  1.0000e+00|   -7.610961|  2.7828e-05|    0.036575|
|        3300|  2.4883e+00|  2.4883e+00|   -7.622442|  2.7714e-05|    0.036576|
|        3310|  1.5407e+01|  1.5407e+01|   -7.644251|  2.7896e-05|    0.036581|
|        3320|  9.5396e+01|  9.5396e+01|   -7.618751|  2.9386e-05|    0.036621|
|        3330|  4.9222e+01|  4.9222e+01|   -7.647701|  3.0204e-05|    0.036653|
|        3340|  2.5398e+01|  2.5398e+01|   -7.647135|  3.0629e-05|    0.036705|
|        3350|  9.1004e+01|  9.1004e+01|   -7.621473|  3.1159e-05|    0.036776|
|        3360|  1.0000e+00|  1.0000e+00|   -7.665400|  3.1399e-05|    0.036818|
|        3370|  1.0000e+00|  1.0000e+00|   -7.650575|  2.6938e-05|    0.036819|
|        3380|  1.0000e+00|  1.0000e+00|   -7.664844|  2.5256e-05|    0.036820|
|        3390|  5.1598e+00|  5.1598e+00|   -7.678678|  2.3517e-05|    0.036823|
|        3400|  3.1948e+01|  3.1948e+01|   -7.685147|  2.3812e-05|    0.036835|
+-----------------------------------------------------------------------+
|        File Writing Summary       |              Filename             |
+-----------------------------------------------------------------------+
|SU2 binary restart                 |restart_flow_aoa15.dat             |
|Paraview                           |flow_aoa15.vtu                     |
|Paraview surface                   |surface_flow_aoa15.vtu             |
+-----------------------------------------------------------------------+
+-----------------------------------------------------------------------------+
|  Inner_Iter|     Min CFL|     Max CFL|      rms[P]|  Cauchy[CD]|          CD|
+-----------------------------------------------------------------------------+
|        3410|  1.6484e+01|  1.6484e+01|   -7.608996|  2.5545e-05|    0.036881|
|        3420|  1.0000e+00|  1.0000e+00|   -7.655494|  2.4796e-05|    0.036887|
|        3430|  4.2998e+00|  4.2998e+00|   -7.686645|  2.2190e-05|    0.036888|
|        3440|  2.6623e+01|  2.6623e+01|   -7.700567|  1.9074e-05|    0.036893|
|        3450|  9.5396e+01|  9.5396e+01|   -7.658807|  1.8196e-05|    0.036914|
|        3460|  4.1019e+01|  4.1019e+01|   -7.713794|  1.6741e-05|    0.036916|
|        3470|  2.1165e+01|  2.1165e+01|   -7.736621|  1.6551e-05|    0.036911|
|        3480|  9.1004e+01|  9.1004e+01|   -7.684625|  1.6652e-05|    0.036893|
|        3490|  9.1004e+01|  9.1004e+01|   -7.688856|  1.8526e-05|    0.036841|
|        3500|  1.5726e+01|  1.5726e+01|   -7.665325|  2.0371e-05|    0.036794|
|        3510|  9.7369e+01|  9.7369e+01|   -7.724676|  2.1320e-05|    0.036770|
|        3520|  9.7369e+01|  9.7369e+01|   -7.693629|  2.2088e-05|    0.036748|
|        3530|  4.1867e+01|  4.1867e+01|   -7.775590|  2.0748e-05|    0.036750|
|        3540|  2.1602e+01|  2.1602e+01|   -7.786716|  2.1175e-05|    0.036768|
|        3550|  9.2886e+01|  9.2886e+01|   -7.717558|  2.2345e-05|    0.036798|
|        3560|  9.2886e+01|  9.2886e+01|   -7.713616|  2.5146e-05|    0.036874|
|        3570|  9.2886e+01|  9.2886e+01|   -7.707944|  2.6915e-05|    0.036957|
|        3580|  4.7927e+01|  4.7927e+01|   -7.772631|  2.6866e-05|    0.036988|
|        3590|  9.9382e+01|  9.9382e+01|   -7.717375|  2.6834e-05|    0.037040|
|        3600|  2.0608e+01|  2.0608e+01|   -7.802586|  2.4828e-05|    0.037060|
+-----------------------------------------------------------------------+
|        File Writing Summary       |              Filename             |
+-----------------------------------------------------------------------+
|SU2 binary restart                 |restart_flow_aoa15.dat             |
|Paraview                           |flow_aoa15.vtu                     |
|Paraview surface                   |surface_flow_aoa15.vtu             |
+-----------------------------------------------------------------------+
+-----------------------------------------------------------------------------+
|  Inner_Iter|     Min CFL|     Max CFL|      rms[P]|  Cauchy[CD]|          CD|
+-----------------------------------------------------------------------------+
|        3610|  1.0633e+01|  1.0633e+01|   -7.748348|  2.3195e-05|    0.037062|
|        3620|  6.5838e+01|  6.5838e+01|   -7.794314|  2.3331e-05|    0.037057|
|        3630|  9.4806e+01|  9.4806e+01|   -7.761259|  2.4425e-05|    0.037029|
|        3640|  9.4806e+01|  9.4806e+01|   -7.764541|  2.6016e-05|    0.036987|
|        3650|  1.9659e+01|  1.9659e+01|   -7.816099|  2.6787e-05|    0.036956|
|        3660|  1.0144e+02|  1.0144e+02|   -7.802825|  2.5619e-05|    0.036939|
|        3670|  3.6346e+01|  3.6346e+01|   -7.871815|  2.5557e-05|    0.036934|
|        3680|  1.8754e+01|  1.8754e+01|   -7.858427|  2.5839e-05|    0.036939|
|        3690|  9.6766e+00|  9.6766e+00|   -7.842976|  2.6124e-05|    0.036951|
|        3700|  5.9915e+01|  5.9915e+01|   -7.895626|  2.5641e-05|    0.036960|
|        3710|  3.0915e+01|  3.0915e+01|   -7.922897|  2.6456e-05|    0.036984|
|        3720|  9.2311e+01|  9.2311e+01|   -7.865995|  2.8019e-05|    0.037028|
|        3730|  9.2311e+01|  9.2311e+01|   -7.865946|  2.9923e-05|    0.037094|
|        3740|  4.7631e+01|  4.7631e+01|   -7.937883|  2.8866e-05|    0.037119|
|        3750|  9.8767e+01|  9.8767e+01|   -7.868235|  2.8762e-05|    0.037163|
|        3760|  1.1852e+01|  1.1852e+01|   -7.866063|  2.8667e-05|    0.037185|
|        3770|  7.3385e+01|  7.3385e+01|   -7.925851|  2.7849e-05|    0.037185|
|        3780|  3.7865e+01|  3.7865e+01|   -7.957335|  2.7871e-05|    0.037182|
|        3790|  9.4220e+01|  9.4220e+01|   -7.893082|  2.7889e-05|    0.037164|
|        3800|  9.4220e+01|  9.4220e+01|   -7.891941|  2.7885e-05|    0.037134|
+-----------------------------------------------------------------------+
|        File Writing Summary       |              Filename             |
+-----------------------------------------------------------------------+
|SU2 binary restart                 |restart_flow_aoa15.dat             |
|Paraview                           |flow_aoa15.vtu                     |
|Paraview surface                   |surface_flow_aoa15.vtu             |
+-----------------------------------------------------------------------+
+-----------------------------------------------------------------------------+
|  Inner_Iter|     Min CFL|     Max CFL|      rms[P]|  Cauchy[CD]|          CD|
+-----------------------------------------------------------------------------+
|        3810|  2.8134e+01|  2.8134e+01|   -7.969311|  2.5608e-05|    0.037115|
|        3820|  1.0081e+02|  1.0081e+02|   -7.900470|  2.2954e-05|    0.037098|
|        3830|  2.0904e+01|  2.0904e+01|   -7.997444|  2.1964e-05|    0.037092|
|        3840|  1.0786e+01|  1.0786e+01|   -7.930848|  2.0220e-05|    0.037098|
|        3850|  6.6783e+01|  6.6783e+01|   -7.977687|  1.9615e-05|    0.037103|
|        3860|  9.6168e+01|  9.6168e+01|   -7.938682|  2.0992e-05|    0.037139|
|        3870|  9.6168e+01|  9.6168e+01|   -7.940719|  2.2785e-05|    0.037188|
|        3880|  1.3848e+01|  1.3848e+01|   -7.929843|  2.3482e-05|    0.037234|
|        3890|  8.5744e+01|  8.5744e+01|   -8.002499|  2.2350e-05|    0.037247|
|        3900|  1.7780e+01|  1.7780e+01|   -8.024178|  2.1991e-05|    0.037270|
|        3910|  1.1009e+02|  1.1009e+02|   -8.011585|  2.1543e-05|    0.037276|
|        3920|  5.6803e+01|  5.6803e+01|   -8.061080|  2.1473e-05|    0.037277|
|        3930|  9.8156e+01|  9.8156e+01|   -8.007607|  2.1409e-05|    0.037270|
|        3940|  9.8156e+01|  9.8156e+01|   -8.009589|  2.1785e-05|    0.037249|
|        3950|  9.8156e+01|  9.8156e+01|   -8.011246|  2.2475e-05|    0.037222|
|        3960|  5.0646e+01|  5.0646e+01|   -8.098914|  2.1925e-05|    0.037212|
|        3970|  2.6132e+01|  2.6132e+01|   -8.132073|  2.0322e-05|    0.037208|
|        3980|  9.3637e+01|  9.3637e+01|   -8.048939|  1.7890e-05|    0.037210|
|        3990|  9.3637e+01|  9.3637e+01|   -8.052611|  1.7552e-05|    0.037227|
|        4000|  9.3637e+01|  9.3637e+01|   -8.051729|  1.7080e-05|    0.037259|
+-----------------------------------------------------------------------+
|        File Writing Summary       |              Filename             |
+-----------------------------------------------------------------------+
|SU2 binary restart                 |restart_flow_aoa15.dat             |
|Paraview                           |flow_aoa15.vtu                     |
|Paraview surface                   |surface_flow_aoa15.vtu             |
+-----------------------------------------------------------------------+
+-----------------------------------------------------------------------------+
|  Inner_Iter|     Min CFL|     Max CFL|      rms[P]|  Cauchy[CD]|          CD|
+-----------------------------------------------------------------------------+
|        4010|  1.1236e+01|  1.1236e+01|   -8.057002|  1.7829e-05|    0.037299|
|        4020|  6.9573e+01|  6.9573e+01|   -8.121459|  1.8197e-05|    0.037310|
|        4030|  1.0019e+02|  1.0019e+02|   -8.071027|  1.9394e-05|    0.037342|
|        4040|  1.0019e+02|  1.0019e+02|   -8.078182|  1.9374e-05|    0.037360|
|        4050|  1.0019e+02|  1.0019e+02|   -8.085058|  1.8367e-05|    0.037358|
|        4060|  1.0019e+02|  1.0019e+02|   -8.094314|  1.8243e-05|    0.037343|
|        4070|  1.2022e+02|  1.2022e+02|   -8.104413|  1.8257e-05|    0.037326|
|        4080|  6.2032e+01|  6.2032e+01|   -8.191596|  1.8242e-05|    0.037320|
|        4090|  2.6673e+01|  2.6673e+01|   -8.240761|  1.8000e-05|    0.037319|
|        4100|  9.5573e+01|  9.5573e+01|   -8.161491|  1.7992e-05|    0.037320|
|        4110|  9.5573e+01|  9.5573e+01|   -8.168241|  1.7136e-05|    0.037335|
|        4120|  9.5573e+01|  9.5573e+01|   -8.171525|  1.6261e-05|    0.037362|
|        4130|  1.6515e+01|  1.6515e+01|   -8.181839|  1.5536e-05|    0.037390|
|        4140|  1.0226e+02|  1.0226e+02|   -8.220606|  1.5492e-05|    0.037402|
|        4150|  1.0226e+02|  1.0226e+02|   -8.189117|  1.5674e-05|    0.037429|
|        4160|  1.0226e+02|  1.0226e+02|   -8.191443|  1.5999e-05|    0.037443|
|        4170|  3.6640e+01|  3.6640e+01|   -8.291683|  1.5954e-05|    0.037443|
|        4180|  1.8906e+01|  1.8906e+01|   -8.284977|  1.5823e-05|    0.037440|
|        4190|  9.7549e+01|  9.7549e+01|   -8.249973|  1.5201e-05|    0.037434|
|        4200|  1.4047e+01|  1.4047e+01|   -8.224111|  1.4584e-05|    0.037423|
+-----------------------------------------------------------------------+
|        File Writing Summary       |              Filename             |
+-----------------------------------------------------------------------+
|SU2 binary restart                 |restart_flow_aoa15.dat             |
|Paraview                           |flow_aoa15.vtu                     |
|Paraview surface                   |surface_flow_aoa15.vtu             |
+-----------------------------------------------------------------------+
+-----------------------------------------------------------------------------+
|  Inner_Iter|     Min CFL|     Max CFL|      rms[P]|  Cauchy[CD]|          CD|
+-----------------------------------------------------------------------------+
|        4210|  8.6976e+01|  8.6976e+01|   -8.292382|  1.4421e-05|    0.037417|
|        4220|  1.0437e+02|  1.0437e+02|   -8.247768|  1.4538e-05|    0.037410|
|        4230|  3.7398e+01|  3.7398e+01|   -8.348113|  1.4406e-05|    0.037409|
|        4240|  1.9297e+01|  1.9297e+01|   -8.336016|  1.3919e-05|    0.037412|
|        4250|  9.9566e+01|  9.9566e+01|   -8.299078|  1.2847e-05|    0.037418|
|        4260|  9.9566e+01|  9.9566e+01|   -8.288501|  1.2041e-05|    0.037438|
|        4270|  9.9566e+01|  9.9566e+01|   -8.286933|  1.2609e-05|    0.037463|
|        4280|  2.9730e+01|  2.9730e+01|   -8.397698|  1.1878e-05|    0.037477|
|        4290|  1.0653e+02|  1.0653e+02|   -8.305277|  1.1664e-05|    0.037489|
|        4300|  4.5805e+01|  4.5805e+01|   -8.392395|  1.1635e-05|    0.037493|
|        4310|  2.3635e+01|  2.3635e+01|   -8.434825|  1.1195e-05|    0.037498|
|        4320|  1.0162e+02|  1.0162e+02|   -8.343602|  1.0557e-05|    0.037499|
|        4330|  1.0162e+02|  1.0162e+02|   -8.343135|  1.0506e-05|    0.037494|
|        4340|  1.0162e+02|  1.0162e+02|   -8.340194|  1.0820e-05|    0.037484|
|        4350|  3.6414e+01|  3.6414e+01|   -8.434647|  1.0861e-05|    0.037478|
|        4360|  1.5657e+01|  1.5657e+01|   -8.375030|  1.0408e-05|    0.037475|
|        4370|  9.6946e+01|  9.6946e+01|   -8.403889|  9.3856e-06|    0.037473|
|        4380|  9.6946e+01|  9.6946e+01|   -8.382499|  8.5476e-06|    0.037480|
|        4390|  9.6946e+01|  9.6946e+01|   -8.386391|  8.6104e-06|    0.037494|
|        4400|  1.1634e+02|  1.1634e+02|   -8.393847|  8.2713e-06|    0.037513|
+-----------------------------------------------------------------------+
|        File Writing Summary       |              Filename             |
+-----------------------------------------------------------------------+
|SU2 binary restart                 |restart_flow_aoa15.dat             |
|Paraview                           |flow_aoa15.vtu                     |
|Paraview surface                   |surface_flow_aoa15.vtu             |
+-----------------------------------------------------------------------+
+-----------------------------------------------------------------------------+
|  Inner_Iter|     Min CFL|     Max CFL|      rms[P]|  Cauchy[CD]|          CD|
+-----------------------------------------------------------------------------+
|        4410|  6.0026e+01|  6.0026e+01|   -8.472017|  7.9788e-06|    0.037519|
|        4420|  1.4936e+01|  1.4936e+01|   -8.393475|  8.5804e-06|    0.037536|
|        4430|  9.2483e+01|  9.2483e+01|   -8.468725|  8.6281e-06|    0.037540|
|        4440|  4.7719e+01|  4.7719e+01|   -8.515435|  8.5587e-06|    0.037544|
|        4450|  9.8950e+01|  9.8950e+01|   -8.451121|  8.3334e-06|    0.037550|
|        4460|  9.8950e+01|  9.8950e+01|   -8.453390|  8.1534e-06|    0.037550|
|        4470|  2.4622e+01|  2.4622e+01|   -8.564637|  8.0095e-06|    0.037546|
|        4480|  1.0587e+02|  1.0587e+02|   -8.464868|  8.1519e-06|    0.037541|
|        4490|  1.0587e+02|  1.0587e+02|   -8.466443|  8.1521e-06|    0.037537|
|        4500|  2.6344e+01|  2.6344e+01|   -8.578855|  7.9602e-06|    0.037537|
|        4510|  1.3593e+01|  1.3593e+01|   -8.480404|  7.2924e-06|    0.037540|
|        4520|  8.4163e+01|  8.4163e+01|   -8.541782|  6.3858e-06|    0.037542|
|        4530|  1.0100e+02|  1.0100e+02|   -8.509078|  6.3390e-06|    0.037555|
|        4540|  1.0100e+02|  1.0100e+02|   -8.508595|  6.4956e-06|    0.037571|
|        4550|  2.5131e+01|  2.5131e+01|   -8.621966|  6.7549e-06|    0.037582|
|        4560|  1.0806e+02|  1.0806e+02|   -8.526076|  6.8807e-06|    0.037590|
|        4570|  3.2266e+01|  3.2266e+01|   -8.618976|  7.0265e-06|    0.037595|
|        4580|  1.6649e+01|  1.6649e+01|   -8.576456|  6.9649e-06|    0.037598|
|        4590|  1.0308e+02|  1.0308e+02|   -8.589162|  6.6093e-06|    0.037598|
|        4600|  1.0308e+02|  1.0308e+02|   -8.567811|  6.4629e-06|    0.037598|
+-----------------------------------------------------------------------+
|        File Writing Summary       |              Filename             |
+-----------------------------------------------------------------------+
|SU2 binary restart                 |restart_flow_aoa15.dat             |
|Paraview                           |flow_aoa15.vtu                     |
|Paraview surface                   |surface_flow_aoa15.vtu             |
+-----------------------------------------------------------------------+
+-----------------------------------------------------------------------------+
|  Inner_Iter|     Min CFL|     Max CFL|      rms[P]|  Cauchy[CD]|          CD|
+-----------------------------------------------------------------------------+
|        4610|  1.0308e+02|  1.0308e+02|   -8.568428|  6.4854e-06|    0.037594|
|        4620|  4.4324e+01|  4.4324e+01|   -8.660945|  6.5267e-06|    0.037591|
|        4630|  1.3235e+01|  1.3235e+01|   -8.582291|  6.3372e-06|    0.037590|
|        4640|  8.1949e+01|  8.1949e+01|   -8.645972|  5.8232e-06|    0.037589|
|        4650|  9.8338e+01|  9.8338e+01|   -8.610993|  5.2865e-06|    0.037594|
|        4660|  9.8338e+01|  9.8338e+01|   -8.616654|  5.3948e-06|    0.037603|
|        4670|  9.8338e+01|  9.8338e+01|   -8.621353|  5.2001e-06|    0.037615|
|        4680|  5.0740e+01|  5.0740e+01|   -8.704200|  5.2089e-06|    0.037619|
|        4690|  1.0522e+02|  1.0522e+02|   -8.636521|  5.4326e-06|    0.037629|
|        4700|  1.0522e+02|  1.0522e+02|   -8.643238|  5.5226e-06|    0.037637|
|        4710|  1.0522e+02|  1.0522e+02|   -8.648086|  5.5684e-06|    0.037640|
|        4720|  1.0522e+02|  1.0522e+02|   -8.657072|  5.5273e-06|    0.037637|
|        4730|  1.2626e+02|  1.2626e+02|   -8.666947|  5.4533e-06|    0.037634|
|        4740|  6.5147e+01|  6.5147e+01|   -8.751269|  5.3239e-06|    0.037633|
|        4750|  3.3614e+01|  3.3614e+01|   -8.790170|  5.3303e-06|    0.037633|
|        4760|  1.0037e+02|  1.0037e+02|   -8.723079|  5.2754e-06|    0.037635|
|        4770|  1.0037e+02|  1.0037e+02|   -8.731691|  5.4204e-06|    0.037640|
|        4780|  1.0037e+02|  1.0037e+02|   -8.735228|  5.2677e-06|    0.037649|
|        4790|  1.2045e+02|  1.2045e+02|   -8.744049|  5.0135e-06|    0.037659|
|        4800|  6.2147e+01|  6.2147e+01|   -8.820295|  4.6927e-06|    0.037662|
+-----------------------------------------------------------------------+
|        File Writing Summary       |              Filename             |
+-----------------------------------------------------------------------+
|SU2 binary restart                 |restart_flow_aoa15.dat             |
|Paraview                           |flow_aoa15.vtu                     |
|Paraview surface                   |surface_flow_aoa15.vtu             |
+-----------------------------------------------------------------------+
+-----------------------------------------------------------------------------+
|  Inner_Iter|     Min CFL|     Max CFL|      rms[P]|  Cauchy[CD]|          CD|
+-----------------------------------------------------------------------------+
|        4810|  1.0739e+02|  1.0739e+02|   -8.757995|  4.7163e-06|    0.037670|
|        4820|  4.6176e+01|  4.6176e+01|   -8.855459|  4.5828e-06|    0.037672|
|        4830|  2.3826e+01|  2.3826e+01|   -8.880381|  4.5492e-06|    0.037674|
|        4840|  1.0245e+02|  1.0245e+02|   -8.799467|  4.5515e-06|    0.037675|
|        4850|  1.0245e+02|  1.0245e+02|   -8.803504|  4.4924e-06|    0.037674|
|        4860|  1.7703e+01|  1.7703e+01|   -8.828533|  4.3630e-06|    0.037674|
|        4870|  1.0961e+02|  1.0961e+02|   -8.842594|  4.3098e-06|    0.037672|
|        4880|  2.7275e+01|  2.7275e+01|   -8.906562|  4.2507e-06|    0.037672|
|        4890|  1.4073e+01|  1.4073e+01|   -8.825966|  4.2857e-06|    0.037673|
|        4900|  8.7137e+01|  8.7137e+01|   -8.881458|  4.1049e-06|    0.037674|
|        4910|  4.4961e+01|  4.4961e+01|   -8.923843|  3.8172e-06|    0.037676|
|        4920|  2.3199e+01|  2.3199e+01|   -8.944536|  3.4821e-06|    0.037679|
|        4930|  9.9751e+01|  9.9751e+01|   -8.882383|  3.4553e-06|    0.037683|
|        4940|  9.9751e+01|  9.9751e+01|   -8.879225|  3.3751e-06|    0.037691|
|        4950|  2.9785e+01|  2.9785e+01|   -8.968403|  3.2559e-06|    0.037696|
|        4960|  1.0673e+02|  1.0673e+02|   -8.885353|  3.3394e-06|    0.037700|
|        4970|  2.6557e+01|  2.6557e+01|   -8.993042|  3.3683e-06|    0.037703|
|        4980|  1.3703e+01|  1.3703e+01|   -8.897620|  3.3122e-06|    0.037705|
|        4990|  8.4844e+01|  8.4844e+01|   -8.953918|  3.2742e-06|    0.037705|
|        5000|  1.0181e+02|  1.0181e+02|   -8.922587|  3.2852e-06|    0.037706|
+-----------------------------------------------------------------------+
|        File Writing Summary       |              Filename             |
+-----------------------------------------------------------------------+
|SU2 binary restart                 |restart_flow_aoa15.dat             |
|Paraview                           |flow_aoa15.vtu                     |
|Paraview surface                   |surface_flow_aoa15.vtu             |
+-----------------------------------------------------------------------+
+-----------------------------------------------------------------------------+
|  Inner_Iter|     Min CFL|     Max CFL|      rms[P]|  Cauchy[CD]|          CD|
+-----------------------------------------------------------------------------+
|        5010|  1.2218e+01|  1.2218e+01|   -8.922982|  3.2051e-06|    0.037706|
|        5020|  7.5648e+01|  7.5648e+01|   -8.981972|  3.0261e-06|    0.037705|
|        5030|  1.3072e+01|  1.3072e+01|   -8.931435|  2.6798e-06|    0.037705|
|        5040|  8.0938e+01|  8.0938e+01|   -8.999616|  2.3058e-06|    0.037705|
|        5050|  4.1762e+01|  4.1762e+01|   -9.027644|  2.2567e-06|    0.037706|
|        5060|  2.1548e+01|  2.1548e+01|   -9.051059|  2.0017e-06|    0.037708|
|        5070|  1.1119e+01|  1.1119e+01|   -8.987661|  2.0363e-06|    0.037710|
|        5080|  6.8843e+01|  6.8843e+01|   -9.033715|  1.9870e-06|    0.037711|
|        5090|  9.9134e+01|  9.9134e+01|   -8.991503|  2.1972e-06|    0.037718|
|        5100|  1.1896e+01|  1.1896e+01|   -8.991979|  2.4311e-06|    0.037724|
|        5110|  7.3657e+01|  7.3657e+01|   -9.049408|  2.4458e-06|    0.037726|
|        5120|  1.8328e+01|  1.8328e+01|   -9.068510|  2.5375e-06|    0.037729|
|        5130|  1.1348e+02|  1.1348e+02|   -9.045894|  2.5619e-06|    0.037731|
|        5140|  5.8555e+01|  5.8555e+01|   -9.088451|  2.5144e-06|    0.037731|
|        5150|  1.0118e+02|  1.0118e+02|   -9.036940|  2.5594e-06|    0.037733|
|        5160|  1.0118e+02|  1.0118e+02|   -9.039670|  2.4985e-06|    0.037734|
|        5170|  3.0213e+01|  3.0213e+01|   -9.137285|  2.3806e-06|    0.037733|
|        5180|  1.0826e+02|  1.0826e+02|   -9.051227|  2.2738e-06|    0.037733|
|        5190|  4.6550e+01|  4.6550e+01|   -9.131527|  1.9675e-06|    0.037733|
|        5200|  2.4019e+01|  2.4019e+01|   -9.168958|  1.8275e-06|    0.037734|
+-----------------------------------------------------------------------+
|        File Writing Summary       |              Filename             |
+-----------------------------------------------------------------------+
|SU2 binary restart                 |restart_flow_aoa15.dat             |
|Paraview                           |flow_aoa15.vtu                     |
|Paraview surface                   |surface_flow_aoa15.vtu             |
+-----------------------------------------------------------------------+
+-----------------------------------------------------------------------------+
|  Inner_Iter|     Min CFL|     Max CFL|      rms[P]|  Cauchy[CD]|          CD|
+-----------------------------------------------------------------------------+
|        5210|  1.2393e+01|  1.2393e+01|   -9.088483|  1.6969e-06|    0.037735|
|        5220|  7.6734e+01|  7.6734e+01|   -9.144856|  1.6111e-06|    0.037736|
|        5230|  3.9593e+01|  3.9593e+01|   -9.168126|  1.6190e-06|    0.037738|
|        5240|  9.8521e+01|  9.8521e+01|   -9.116938|  1.7514e-06|    0.037742|
|        5250|  9.8521e+01|  9.8521e+01|   -9.113693|  1.9146e-06|    0.037747|
|        5260|  2.4515e+01|  2.4515e+01|   -9.200412|  2.0368e-06|    0.037751|
|        5270|  1.0541e+02|  1.0541e+02|   -9.120073|  2.0824e-06|    0.037753|
|        5280|  4.5325e+01|  4.5325e+01|   -9.189260|  2.1111e-06|    0.037754|
|        5290|  2.3386e+01|  2.3386e+01|   -9.222725|  2.1488e-06|    0.037755|
|        5300|  1.0056e+02|  1.0056e+02|   -9.151784|  2.1269e-06|    0.037756|
|        5310|  1.0056e+02|  1.0056e+02|   -9.155913|  2.1099e-06|    0.037758|
|        5320|  1.0056e+02|  1.0056e+02|   -9.157319|  2.0173e-06|    0.037758|
|        5330|  5.1885e+01|  5.1885e+01|   -9.234894|  1.9911e-06|    0.037757|
|        5340|  1.8592e+01|  1.8592e+01|   -9.246889|  1.7725e-06|    0.037758|
|        5350|  9.5928e+01|  9.5928e+01|   -9.214320|  1.5337e-06|    0.037758|
|        5360|  9.5928e+01|  9.5928e+01|   -9.206056|  1.5860e-06|    0.037761|
|        5370|  9.5928e+01|  9.5928e+01|   -9.211221|  1.5695e-06|    0.037764|
|        5380|  9.5928e+01|  9.5928e+01|   -9.218663|  1.6780e-06|    0.037768|
|        5390|  1.6576e+01|  1.6576e+01|   -9.257988|  1.7742e-06|    0.037771|
|        5400|  1.0264e+02|  1.0264e+02|   -9.267506|  1.7470e-06|    0.037773|
+-----------------------------------------------------------------------+
|        File Writing Summary       |              Filename             |
+-----------------------------------------------------------------------+
|SU2 binary restart                 |restart_flow_aoa15.dat             |
|Paraview                           |flow_aoa15.vtu                     |
|Paraview surface                   |surface_flow_aoa15.vtu             |
+-----------------------------------------------------------------------+
+-----------------------------------------------------------------------------+
|  Inner_Iter|     Min CFL|     Max CFL|      rms[P]|  Cauchy[CD]|          CD|
+-----------------------------------------------------------------------------+
|        5410|  1.0264e+01|  1.0264e+01|   -9.244070|  1.8661e-06|    0.037776|
|        5420|  6.3550e+01|  6.3550e+01|   -9.316474|  1.8622e-06|    0.037776|
|        5430|  3.2790e+01|  3.2790e+01|   -9.336407|  1.8581e-06|    0.037777|
|        5440|  9.7911e+01|  9.7911e+01|   -9.277726|  1.8743e-06|    0.037778|
|        5450|  9.7911e+01|  9.7911e+01|   -9.285338|  1.8393e-06|    0.037778|
|        5460|  3.5083e+01|  3.5083e+01|   -9.354660|  1.8063e-06|    0.037779|
|        5470|  1.0476e+02|  1.0476e+02|   -9.289054|  1.8049e-06|    0.037779|
|        5480|  4.5044e+01|  4.5044e+01|   -9.364156|  1.7372e-06|    0.037779|
|        5490|  2.3242e+01|  2.3242e+01|   -9.394902|  1.6217e-06|    0.037780|
|        5500|  1.1992e+01|  1.1992e+01|   -9.325360|  1.4453e-06|    0.037781|
|        5510|  7.4253e+01|  7.4253e+01|   -9.379243|  1.3310e-06|    0.037781|
|        5520|  3.8313e+01|  3.8313e+01|   -9.401535|  1.2904e-06|    0.037783|
|        5530|  9.5335e+01|  9.5335e+01|   -9.358970|  1.3456e-06|    0.037785|
|        5540|  9.5335e+01|  9.5335e+01|   -9.358934|  1.4177e-06|    0.037788|
|        5550|  1.6474e+01|  1.6474e+01|   -9.389407|  1.4800e-06|    0.037791|
|        5560|  1.0200e+02|  1.0200e+02|   -9.399066|  1.4676e-06|    0.037792|
|        5570|  4.3859e+01|  4.3859e+01|   -9.444106|  1.4964e-06|    0.037793|
|        5580|  2.2630e+01|  2.2630e+01|   -9.466047|  1.5204e-06|    0.037794|
|        5590|  9.7306e+01|  9.7306e+01|   -9.401276|  1.5199e-06|    0.037795|
|        5600|  9.7306e+01|  9.7306e+01|   -9.404529|  1.5470e-06|    0.037796|
+-----------------------------------------------------------------------+
|        File Writing Summary       |              Filename             |
+-----------------------------------------------------------------------+
|SU2 binary restart                 |restart_flow_aoa15.dat             |
|Paraview                           |flow_aoa15.vtu                     |
|Paraview surface                   |surface_flow_aoa15.vtu             |
+-----------------------------------------------------------------------+
+-----------------------------------------------------------------------------+
|  Inner_Iter|     Min CFL|     Max CFL|      rms[P]|  Cauchy[CD]|          CD|
+-----------------------------------------------------------------------------+
|        5610|  9.7306e+01|  9.7306e+01|   -9.403239|  1.4694e-06|    0.037797|
|        5620|  2.9055e+01|  2.9055e+01|   -9.489704|  1.3410e-06|    0.037797|
|        5630|  1.2493e+01|  1.2493e+01|   -9.414545|  1.2146e-06|    0.037797|
|        5640|  7.7355e+01|  7.7355e+01|   -9.466686|  1.0891e-06|    0.037797|
|        5650|  9.2826e+01|  9.2826e+01|   -9.443136|  1.1034e-06|    0.037799|
|        5660|  9.2826e+01|  9.2826e+01|   -9.449299|  1.0560e-06|    0.037801|
|        5670|  9.2826e+01|  9.2826e+01|   -9.455897|  1.1423e-06|    0.037803|
|        5680|  9.2826e+01|  9.2826e+01|   -9.466352|  1.1975e-06|    0.037806|
|        5690|  2.7718e+01|  2.7718e+01|   -9.557311|  1.2234e-06|    0.037807|
|        5700|  9.9318e+01|  9.9318e+01|   -9.484147|  1.2612e-06|    0.037809|
|        5710|  5.1246e+01|  5.1246e+01|   -9.550297|  1.2629e-06|    0.037809|
|        5720|  2.6442e+01|  2.6442e+01|   -9.587976|  1.2658e-06|    0.037810|
|        5730|  9.4745e+01|  9.4745e+01|   -9.522241|  1.2883e-06|    0.037811|
|        5740|  9.4745e+01|  9.4745e+01|   -9.531150|  1.2880e-06|    0.037812|
|        5750|  9.4745e+01|  9.4745e+01|   -9.533521|  1.2774e-06|    0.037812|
|        5760|  4.8886e+01|  4.8886e+01|   -9.601234|  1.2649e-06|    0.037812|
|        5770|  1.7517e+01|  1.7517e+01|   -9.607614|  1.2356e-06|    0.037813|
|        5780|  1.0846e+02|  1.0846e+02|   -9.578591|  1.1499e-06|    0.037813|
|        5790|  5.5963e+01|  5.5963e+01|   -9.623504|  1.0345e-06|    0.037813|
|        5795|  1.1604e+01|  1.1604e+01|   -9.573906|  9.9135e-07|    0.037814|

----------------------------- Solver Exit -------------------------------
All convergence criteria satisfied.
+-----------------------------------------------------------------------+
|      Convergence Field     |     Value    |   Criterion  |  Converged |
+-----------------------------------------------------------------------+
|                      rms[P]|      -9.57391|          < -9|         Yes|
|                  Cauchy[CD]|   9.91352e-07|       < 1e-06|         Yes|
+-----------------------------------------------------------------------+
-------------------------------------------------------------------------
+-----------------------------------------------------------------------+
|        File Writing Summary       |              Filename             |
+-----------------------------------------------------------------------+
|SU2 binary restart                 |restart_flow_aoa15.dat             |
|Paraview                           |flow_aoa15.vtu                     |
|Paraview surface                   |surface_flow_aoa15.vtu             |
+-----------------------------------------------------------------------+

------------------------- Solver Postprocessing -------------------------
Deleted CNumerics container.
Deleted CIntegration container.
Deleted CSolver container.
Deleted CIteration container.
Deleted CInterface container.
Deleted CGeometry container.
Deleted CFreeFormDefBox class.
Deleted CSurfaceMovement class.
Deleted CVolumetricMovement class.
Deleted CConfig container.
Deleted nInst container.
Deleted COutput class.
-------------------------------------------------------------------------

------------------------- Exit Success (SU2_CFD) ------------------------

